@<TRIPOS>MOLECULE
*****
 38 42 0 0 0
SMALL
GASTEIGER

@<TRIPOS>ATOM
      1 C          63.3816   84.7156   14.7454 C.ar    1  UNL1        0.0329
      2 C          62.7662   84.7681   16.1124 C.ar    1  UNL1        0.0081
      3 C          62.7111   86.0669   16.8606 C.ar    1  UNL1        0.0202
      4 C          63.2713   87.3134   16.2420 C.ar    1  UNL1        0.0893
      5 N          63.3585   88.7271   16.7356 N.ar    1  UNL1       -0.2239
      6 C          64.0277   89.5484   15.6737 C.ar    1  UNL1        0.1667
      7 S          64.3542   88.6422   14.5238 S.2     1  UNL1       -0.0513
      8 C          63.8867   87.2609   14.8750 C.ar    1  UNL1        0.0502
      9 C          63.9418   85.9620   14.1268 C.ar    1  UNL1        0.0146
     10 N          64.3193   91.0179   15.7485 N.am    1  UNL1       -0.2485
     11 C          65.3501   91.6250   14.8435 C.2     1  UNL1        0.3059
     12 O          66.0892   90.7626   13.8637 O.2     1  UNL1       -0.2524
     13 N          65.6417   93.0945   14.9184 N.am    1  UNL1       -0.2872
     14 H          63.8342   91.5839   16.3916 H       1  UNL1        0.1583
     15 H          65.1566   93.6605   15.5614 H       1  UNL1        0.1510
     16 C          66.6724   93.7016   14.0134 C.3     1  UNL1        0.1082
     17 C          66.2511   94.3656   12.7360 C.3     1  UNL1        0.0938
     18 N          66.8661   93.9453   11.4340 N.3     1  UNL1       -0.2670
     19 C          66.9898   94.9310   10.3101 C.3     1  UNL1        0.1047
     20 C          67.6048   94.5106    9.0082 C.3     1  UNL1        0.1595
     21 O          68.0961   93.1046    8.8301 O.3     1  UNL1       -0.3508
     22 C          67.9724   92.1189    9.9540 C.3     1  UNL1        0.1595
     23 C          67.3574   92.5393   11.2559 C.3     1  UNL1        0.1047
     24 S          63.4368   83.4168   13.9971 S.3     1  UNL1       -0.0470
     25 C          61.5944   86.0364   10.3284 C.ar    1  UNL1        0.2424
     26 C          62.2110   85.6972    9.0037 C.ar    1  UNL1        0.0624
     27 C          63.2774   84.6456    8.9201 C.ar    1  UNL1        0.0455
     28 C          63.7273   83.9333   10.1612 C.ar    1  UNL1        0.1874
     29 N          64.7504   82.8600   10.3874 N.ar    1  UNL1       -0.1264
     30 N          64.7661   82.5358   11.8519 N.ar    1  UNL1       -0.1200
     31 C          63.7527   83.4088   12.5308 C.ar    1  UNL1        0.2172
     32 N          63.1107   84.2725   11.4858 N.ar    1  UNL1       -0.1830
     33 N          62.0442   85.3241   11.5694 N.ar    1  UNL1       -0.1242
     34 O          60.5280   87.0879   10.4120 O.3     1  UNL1       -0.4593
     35 C          60.8864   88.4899   10.8069 C.3     1  UNL1        0.2072
     36 C          62.3243   88.9157   10.8388 C.3     1  UNL1        0.0474
     37 C          63.6618   91.1258   11.1166 C.3     1  UNL1        0.0001
     38 C          62.7171   90.2697   10.3262 C.3     1  UNL1        0.0038
@<TRIPOS>BOND
     1    37    38    1
     2    38    36    1
     3    36    35    1
     4    35    34    1
     5    34    25    1
     6    25    26   ar
     7    26    27   ar
     8    27    28   ar
     9    28    29   ar
    10    29    30   ar
    11    30    31   ar
    12    31    24    1
    13    24     1    1
    14     1     2   ar
    15     2     3   ar
    16     3     4   ar
    17     4     5   ar
    18     5     6   ar
    19     6    10    1
    20    10    11   am
    21    11    12    2
    22    11    13   am
    23    13    16    1
    24    16    17    1
    25    17    18    1
    26    18    19    1
    27    19    20    1
    28    20    21    1
    29    21    22    1
    30    22    23    1
    31     6     7   ar
    32     7     8   ar
    33     8     9   ar
    34    31    32   ar
    35    32    33   ar
    36    33    25   ar
    37    32    28   ar
    38     9     1   ar
    39     8     4   ar
    40    23    18    1
    41    10    14    1
    42    13    15    1
@<TRIPOS>MOLECULE
*****
 38 42 0 0 0
SMALL
GASTEIGER

@<TRIPOS>ATOM
      1 C          64.4882   89.9988   15.1503 C.ar    1  UNL1        0.0329
      2 C          63.5236   90.2250   16.2766 C.ar    1  UNL1        0.0081
      3 C          62.8405   89.0574   16.9248 C.ar    1  UNL1        0.0202
      4 C          63.1219   87.6637   16.4468 C.ar    1  UNL1        0.0893
      5 N          62.6033   86.3272   16.8883 N.ar    1  UNL1       -0.2239
      6 C          63.2474   85.2752   16.0349 C.ar    1  UNL1        0.1667
      7 S          64.1640   85.9614   15.0660 S.2     1  UNL1       -0.0513
      8 C          64.0865   87.4376   15.3205 C.ar    1  UNL1        0.0502
      9 C          64.7696   88.6051   14.6723 C.ar    1  UNL1        0.0146
     10 N          63.0155   83.7965   16.1332 N.am    1  UNL1       -0.2485
     11 C          62.3914   83.0574   14.9868 C.2     1  UNL1        0.3059
     12 O          61.9992   83.7970   13.7421 O.2     1  UNL1       -0.2524
     13 N          62.1595   81.5786   15.0850 N.am    1  UNL1       -0.2872
     14 H          63.2729   83.3110   16.9501 H       1  UNL1        0.1583
     15 H          62.4169   81.0932   15.9019 H       1  UNL1        0.1510
     16 C          61.5354   80.8395   13.9386 C.3     1  UNL1        0.1082
     17 C          62.3936   80.3298   12.8189 C.3     1  UNL1        0.0938
     18 N          63.2557   81.2804   12.0422 N.3     1  UNL1       -0.2670
     19 C          64.2754   82.1200   12.7531 C.3     1  UNL1        0.1047
     20 C          65.1375   83.0705   11.9765 C.3     1  UNL1        0.1595
     21 O          64.9800   83.1815   10.4889 O.3     1  UNL1       -0.3508
     22 C          63.9603   82.3420    9.7780 C.3     1  UNL1        0.1595
     23 C          63.0982   81.3914   10.5547 C.3     1  UNL1        0.1047
     24 S          65.1713   91.1663   14.5020 S.3     1  UNL1       -0.0470
     25 C          61.7128   89.5437   11.4817 C.ar    1  UNL1        0.2424
     26 C          61.7998   90.1553   10.1148 C.ar    1  UNL1        0.0624
     27 C          62.8761   91.1538    9.8071 C.ar    1  UNL1        0.0455
     28 C          63.8653   91.5407   10.8662 C.ar    1  UNL1        0.1874
     29 N          65.0263   92.4904   10.8564 N.ar    1  UNL1       -0.1264
     30 N          65.6569   92.4658   12.2172 N.ar    1  UNL1       -0.1200
     31 C          64.8856   91.5008   13.0680 C.ar    1  UNL1        0.2172
     32 N          63.7783   90.9291   12.2330 N.ar    1  UNL1       -0.1830
     33 N          62.7021   89.9306   12.5408 N.ar    1  UNL1       -0.1242
     34 O          60.6366   88.5452   11.7895 O.3     1  UNL1       -0.4593
     35 C          60.1789   87.5857   10.7313 C.3     1  UNL1        0.2072
     36 C          61.0935   86.4925   10.2638 C.3     1  UNL1        0.0474
     37 C          62.7706   85.5694    8.5073 C.3     1  UNL1        0.0001
     38 C          61.7447   86.5847    8.9156 C.3     1  UNL1        0.0038
@<TRIPOS>BOND
     1    37    38    1
     2    38    36    1
     3    36    35    1
     4    35    34    1
     5    34    25    1
     6    25    26   ar
     7    26    27   ar
     8    27    28   ar
     9    28    29   ar
    10    29    30   ar
    11    30    31   ar
    12    31    24    1
    13    24     1    1
    14     1     2   ar
    15     2     3   ar
    16     3     4   ar
    17     4     5   ar
    18     5     6   ar
    19     6    10    1
    20    10    11   am
    21    11    12    2
    22    11    13   am
    23    13    16    1
    24    16    17    1
    25    17    18    1
    26    18    19    1
    27    19    20    1
    28    20    21    1
    29    21    22    1
    30    22    23    1
    31     6     7   ar
    32     7     8   ar
    33     8     9   ar
    34    31    32   ar
    35    32    33   ar
    36    33    25   ar
    37    32    28   ar
    38     9     1   ar
    39     8     4   ar
    40    23    18    1
    41    10    14    1
    42    13    15    1
@<TRIPOS>MOLECULE
*****
 38 42 0 0 0
SMALL
GASTEIGER

@<TRIPOS>ATOM
      1 C          63.7477   84.3385   12.4541 C.ar    1  UNL1        0.0329
      2 C          64.3868   83.6132   11.3071 C.ar    1  UNL1        0.0081
      3 C          63.8705   83.8122    9.9129 C.ar    1  UNL1        0.0202
      4 C          62.7151   84.7365    9.6656 C.ar    1  UNL1        0.0893
      5 N          61.9948   85.1291    8.4098 N.ar    1  UNL1       -0.2239
      6 C          60.9105   86.0969    8.7808 C.ar    1  UNL1        0.1667
      7 S          60.9608   86.3025   10.2658 S.2     1  UNL1       -0.0513
      8 C          62.0761   85.4616   10.8126 C.ar    1  UNL1        0.0502
      9 C          62.5924   85.2626   12.2069 C.ar    1  UNL1        0.0146
     10 N          59.9454   86.7454    7.8331 N.am    1  UNL1       -0.2485
     11 C          59.8870   88.2406    7.7287 C.2     1  UNL1        0.3059
     12 O          60.7936   89.0873    8.5720 O.2     1  UNL1       -0.2524
     13 N          58.9218   88.8891    6.7811 N.am    1  UNL1       -0.2872
     14 H          59.3504   86.1897    7.2797 H       1  UNL1        0.1583
     15 H          58.3268   88.3334    6.2276 H       1  UNL1        0.1510
     16 C          58.8634   90.3843    6.6766 C.3     1  UNL1        0.1082
     17 C          58.5281   91.0320    5.3658 C.3     1  UNL1        0.0938
     18 N          59.6238   91.5625    4.4895 N.3     1  UNL1       -0.2670
     19 C          61.0192   91.0295    4.6276 C.3     1  UNL1        0.1047
     20 C          62.1148   91.5600    3.7513 C.3     1  UNL1        0.1595
     21 O          61.8153   92.6235    2.7368 O.3     1  UNL1       -0.3508
     22 C          60.4200   93.1565    2.5986 C.3     1  UNL1        0.1595
     23 C          59.3243   92.6260    3.4750 C.3     1  UNL1        0.1047
     24 S          64.2639   84.1395   13.8483 S.3     1  UNL1       -0.0470
     25 C          64.2429   88.8639   15.0298 C.ar    1  UNL1        0.2424
     26 C          63.4631   89.1480   16.2792 C.ar    1  UNL1        0.0624
     27 C          62.7948   88.0264   17.0176 C.ar    1  UNL1        0.0455
     28 C          62.9063   86.6205   16.5066 C.ar    1  UNL1        0.1874
     29 N          62.3597   85.3205   17.0176 N.ar    1  UNL1       -0.1264
     30 N          62.8017   84.2329   16.0840 N.ar    1  UNL1       -0.1200
     31 C          63.6215   84.8607   14.9960 C.ar    1  UNL1        0.2172
     32 N          63.6862   86.3364   15.2573 N.ar    1  UNL1       -0.1830
     33 N          64.3545   87.4580   14.5189 N.ar    1  UNL1       -0.1242
     34 O          64.9112   89.9855   14.2914 O.3     1  UNL1       -0.4593
     35 C          64.1415   90.7804   13.2787 C.3     1  UNL1        0.2072
     36 C          62.9208   90.1930   12.6345 C.3     1  UNL1        0.0474
     37 C          63.0996   91.1957   10.2444 C.3     1  UNL1        0.0001
     38 C          62.8688   90.0190   11.1455 C.3     1  UNL1        0.0038
@<TRIPOS>BOND
     1    37    38    1
     2    38    36    1
     3    36    35    1
     4    35    34    1
     5    34    25    1
     6    25    26   ar
     7    26    27   ar
     8    27    28   ar
     9    28    29   ar
    10    29    30   ar
    11    30    31   ar
    12    31    24    1
    13    24     1    1
    14     1     2   ar
    15     2     3   ar
    16     3     4   ar
    17     4     5   ar
    18     5     6   ar
    19     6    10    1
    20    10    11   am
    21    11    12    2
    22    11    13   am
    23    13    16    1
    24    16    17    1
    25    17    18    1
    26    18    19    1
    27    19    20    1
    28    20    21    1
    29    21    22    1
    30    22    23    1
    31     6     7   ar
    32     7     8   ar
    33     8     9   ar
    34    31    32   ar
    35    32    33   ar
    36    33    25   ar
    37    32    28   ar
    38     9     1   ar
    39     8     4   ar
    40    23    18    1
    41    10    14    1
    42    13    15    1
@<TRIPOS>MOLECULE
*****
 38 42 0 0 0
SMALL
GASTEIGER

@<TRIPOS>ATOM
      1 C          63.6358   84.3725   12.6112 C.ar    1  UNL1        0.0329
      2 C          64.3348   83.6719   11.4840 C.ar    1  UNL1        0.0081
      3 C          63.8753   83.8804   10.0715 C.ar    1  UNL1        0.0202
      4 C          62.7167   84.7894    9.7860 C.ar    1  UNL1        0.0893
      5 N          62.0442   85.1865    8.5054 N.ar    1  UNL1       -0.2239
      6 C          60.9296   86.1325    8.8411 C.ar    1  UNL1        0.1667
      7 S          60.9132   86.3201   10.3293 S.2     1  UNL1       -0.0513
      8 C          62.0177   85.4900   10.9133 C.ar    1  UNL1        0.0502
      9 C          62.4772   85.2815   12.3258 C.ar    1  UNL1        0.0146
     10 N          59.9954   86.7777    7.8608 N.am    1  UNL1       -0.2485
     11 C          59.9275   88.2729    7.7620 C.2     1  UNL1        0.3059
     12 O          60.7939   89.1229    8.6434 O.2     1  UNL1       -0.2524
     13 N          58.9933   88.9181    6.7817 N.am    1  UNL1       -0.2872
     14 H          59.4268   86.2198    7.2823 H       1  UNL1        0.1583
     15 H          58.4247   88.3602    6.2032 H       1  UNL1        0.1510
     16 C          58.9254   90.4133    6.6828 C.3     1  UNL1        0.1082
     17 C          58.5799   91.0636    5.3760 C.3     1  UNL1        0.0938
     18 N          59.6698   91.5778    4.4829 N.3     1  UNL1       -0.2670
     19 C          59.3658   92.6300    3.4579 C.3     1  UNL1        0.1047
     20 C          60.4557   93.1442    2.5649 C.3     1  UNL1        0.1595
     21 O          61.8497   92.6063    2.6967 O.3     1  UNL1       -0.3508
     22 C          62.1537   91.5541    3.7217 C.3     1  UNL1        0.1595
     23 C          61.0638   91.0399    4.6147 C.3     1  UNL1        0.1047
     24 S          64.0953   84.1640   14.0238 S.3     1  UNL1       -0.0470
     25 C          64.2606   88.9462   14.9292 C.ar    1  UNL1        0.2424
     26 C          63.5084   89.3303   16.1689 C.ar    1  UNL1        0.0624
     27 C          62.8102   88.2784   16.9787 C.ar    1  UNL1        0.0455
     28 C          62.8641   86.8423   16.5490 C.ar    1  UNL1        0.1874
     29 N          62.2779   85.5948   17.1407 N.ar    1  UNL1       -0.1264
     30 N          62.6678   84.4397   16.2668 N.ar    1  UNL1       -0.1200
     31 C          63.4949   84.9733   15.1349 C.ar    1  UNL1        0.2172
     32 N          63.6163   86.4582   15.3094 N.ar    1  UNL1       -0.1830
     33 N          64.3145   87.5101   14.4995 N.ar    1  UNL1       -0.1242
     34 O          64.9588   89.9982   14.1194 O.3     1  UNL1       -0.4593
     35 C          65.4041   91.2737   14.7710 C.3     1  UNL1        0.2072
     36 C          66.8399   91.6991   14.6837 C.3     1  UNL1        0.0474
     37 C          68.8240   92.5932   16.1029 C.3     1  UNL1        0.0001
     38 C          67.3909   92.6862   15.6696 C.3     1  UNL1        0.0038
@<TRIPOS>BOND
     1    37    38    1
     2    38    36    1
     3    36    35    1
     4    35    34    1
     5    34    25    1
     6    25    26   ar
     7    26    27   ar
     8    27    28   ar
     9    28    29   ar
    10    29    30   ar
    11    30    31   ar
    12    31    24    1
    13    24     1    1
    14     1     2   ar
    15     2     3   ar
    16     3     4   ar
    17     4     5   ar
    18     5     6   ar
    19     6    10    1
    20    10    11   am
    21    11    12    2
    22    11    13   am
    23    13    16    1
    24    16    17    1
    25    17    18    1
    26    18    19    1
    27    19    20    1
    28    20    21    1
    29    21    22    1
    30    22    23    1
    31     6     7   ar
    32     7     8   ar
    33     8     9   ar
    34    31    32   ar
    35    32    33   ar
    36    33    25   ar
    37    32    28   ar
    38     9     1   ar
    39     8     4   ar
    40    23    18    1
    41    10    14    1
    42    13    15    1
@<TRIPOS>MOLECULE
*****
 38 42 0 0 0
SMALL
GASTEIGER

@<TRIPOS>ATOM
      1 C          62.3453   85.6278   10.1143 C.ar    1  UNL1        0.0329
      2 C          62.4801   86.8324   10.9979 C.ar    1  UNL1        0.0081
      3 C          61.7299   88.0896   10.6715 C.ar    1  UNL1        0.0202
      4 C          60.8448   88.1423    9.4615 C.ar    1  UNL1        0.0893
      5 N          59.9886   89.2337    8.8909 N.ar    1  UNL1       -0.2239
      6 C          59.3247   88.7036    7.6547 C.ar    1  UNL1        0.1667
      7 S          59.7705   87.2845    7.4613 S.2     1  UNL1       -0.0513
      8 C          60.7101   86.9376    8.5779 C.ar    1  UNL1        0.0502
      9 C          61.4603   85.6804    8.9044 C.ar    1  UNL1        0.0146
     10 N          58.3805   89.4598    6.7677 N.am    1  UNL1       -0.2485
     11 C          58.9179   90.3608    5.6956 C.2     1  UNL1        0.3059
     12 O          60.3994   90.5057    5.5106 O.2     1  UNL1       -0.2524
     13 N          57.9738   91.1170    4.8085 N.am    1  UNL1       -0.2872
     14 H          57.4082   89.3647    6.8891 H       1  UNL1        0.1583
     15 H          57.0014   91.0219    4.9300 H       1  UNL1        0.1510
     16 C          58.5111   92.0181    3.7365 C.3     1  UNL1        0.1082
     17 C          59.8192   92.7246    3.9366 C.3     1  UNL1        0.0938
     18 N          60.7616   92.8989    2.7827 N.3     1  UNL1       -0.2670
     19 C          60.3206   93.6489    1.5608 C.3     1  UNL1        0.1047
     20 C          61.2630   93.8232    0.4070 C.3     1  UNL1        0.1595
     21 O          62.6465   93.2475    0.4749 O.3     1  UNL1       -0.3508
     22 C          63.0874   92.4975    1.6968 C.3     1  UNL1        0.1595
     23 C          62.1450   92.3232    2.8507 C.3     1  UNL1        0.1047
     24 S          63.0955   84.3706   10.4407 S.3     1  UNL1       -0.0470
     25 C          63.5179   85.9031   15.0439 C.ar    1  UNL1        0.2424
     26 C          63.1559   84.8463   16.0449 C.ar    1  UNL1        0.0624
     27 C          62.7206   83.4889   15.5781 C.ar    1  UNL1        0.0455
     28 C          62.6473   83.1882   14.1104 C.ar    1  UNL1        0.1874
     29 N          62.2562   81.9513   13.3575 N.ar    1  UNL1       -0.1264
     30 N          62.3765   82.2436   11.8912 N.ar    1  UNL1       -0.1200
     31 C          62.8420   83.6612   11.7379 C.ar    1  UNL1        0.2172
     32 N          63.0093   84.2451   13.1095 N.ar    1  UNL1       -0.1830
     33 N          63.4447   85.6025   13.5762 N.ar    1  UNL1       -0.1242
     34 O          63.9533   87.2606   15.5106 O.3     1  UNL1       -0.4593
     35 C          64.3856   88.2938   14.5129 C.3     1  UNL1        0.2072
     36 C          64.1136   89.7461   14.7714 C.3     1  UNL1        0.0474
     37 C          63.7204   90.6833   12.3803 C.3     1  UNL1        0.0001
     38 C          64.4087   90.7648   13.7106 C.3     1  UNL1        0.0038
@<TRIPOS>BOND
     1    37    38    1
     2    38    36    1
     3    36    35    1
     4    35    34    1
     5    34    25    1
     6    25    26   ar
     7    26    27   ar
     8    27    28   ar
     9    28    29   ar
    10    29    30   ar
    11    30    31   ar
    12    31    24    1
    13    24     1    1
    14     1     2   ar
    15     2     3   ar
    16     3     4   ar
    17     4     5   ar
    18     5     6   ar
    19     6    10    1
    20    10    11   am
    21    11    12    2
    22    11    13   am
    23    13    16    1
    24    16    17    1
    25    17    18    1
    26    18    19    1
    27    19    20    1
    28    20    21    1
    29    21    22    1
    30    22    23    1
    31     6     7   ar
    32     7     8   ar
    33     8     9   ar
    34    31    32   ar
    35    32    33   ar
    36    33    25   ar
    37    32    28   ar
    38     9     1   ar
    39     8     4   ar
    40    23    18    1
    41    10    14    1
    42    13    15    1
@<TRIPOS>MOLECULE
*****
 38 42 0 0 0
SMALL
GASTEIGER

@<TRIPOS>ATOM
      1 C          62.0882   86.8589   10.1837 C.ar    1  UNL1        0.0329
      2 C          61.3781   87.9876    9.4968 C.ar    1  UNL1        0.0081
      3 C          61.3846   89.3587   10.1051 C.ar    1  UNL1        0.0202
      4 C          62.1013   89.6011   11.4004 C.ar    1  UNL1        0.0893
      5 N          62.2789   90.8358   12.2334 N.ar    1  UNL1       -0.2239
      6 C          63.0988   90.4702   13.4351 C.ar    1  UNL1        0.1667
      7 S          63.4279   89.0096   13.3448 S.2     1  UNL1       -0.0513
      8 C          62.8114   88.4724   12.0873 C.ar    1  UNL1        0.0502
      9 C          62.8048   87.1014   11.4789 C.ar    1  UNL1        0.0146
     10 N          63.5163   91.4017   14.5342 N.am    1  UNL1       -0.2485
     11 C          64.9620   91.5056   14.9206 C.2     1  UNL1        0.3059
     12 O          65.9901   90.6780   14.2079 O.2     1  UNL1       -0.2524
     13 N          65.3795   92.4371   16.0197 N.am    1  UNL1       -0.2872
     14 H          62.8415   91.9449   15.0020 H       1  UNL1        0.1583
     15 H          64.7047   92.9803   16.4874 H       1  UNL1        0.1510
     16 C          66.8252   92.5410   16.4060 C.3     1  UNL1        0.1082
     17 C          67.7997   93.2186   15.4889 C.3     1  UNL1        0.0938
     18 N          67.6101   93.1404   14.0030 N.3     1  UNL1       -0.2670
     19 C          68.3870   92.1401   13.1992 C.3     1  UNL1        0.1047
     20 C          68.1972   92.0619   11.7134 C.3     1  UNL1        0.1595
     21 O          67.2307   92.9840   11.0311 O.3     1  UNL1       -0.3508
     22 C          66.4538   93.9843   11.8348 C.3     1  UNL1        0.1595
     23 C          66.6435   94.0625   13.3207 C.3     1  UNL1        0.1047
     24 S          62.0817   85.4879    9.5753 S.3     1  UNL1       -0.0470
     25 C          62.7237   83.9442   14.1493 C.ar    1  UNL1        0.2424
     26 C          63.7251   82.8323   14.2533 C.ar    1  UNL1        0.0624
     27 C          64.4052   82.3176   13.0194 C.ar    1  UNL1        0.0455
     28 C          64.0839   82.9148   11.6815 C.ar    1  UNL1        0.1874
     29 N          64.5903   82.6165   10.3014 N.ar    1  UNL1       -0.1264
     30 N          63.9019   83.5440    9.3445 N.ar    1  UNL1       -0.1200
     31 C          62.9700   84.4156   10.1331 C.ar    1  UNL1        0.2172
     32 N          63.0825   84.0267   11.5774 N.ar    1  UNL1       -0.1830
     33 N          62.4024   84.5414   12.8114 N.ar    1  UNL1       -0.1242
     34 O          62.0436   84.4590   15.3832 O.3     1  UNL1       -0.4593
     35 C          62.8212   85.2483   16.3943 C.3     1  UNL1        0.2072
     36 C          62.1118   86.2062   17.3047 C.3     1  UNL1        0.0474
     37 C          63.0471   88.6121   17.0092 C.3     1  UNL1        0.0001
     38 C          62.8415   87.3936   17.8596 C.3     1  UNL1        0.0038
@<TRIPOS>BOND
     1    37    38    1
     2    38    36    1
     3    36    35    1
     4    35    34    1
     5    34    25    1
     6    25    26   ar
     7    26    27   ar
     8    27    28   ar
     9    28    29   ar
    10    29    30   ar
    11    30    31   ar
    12    31    24    1
    13    24     1    1
    14     1     2   ar
    15     2     3   ar
    16     3     4   ar
    17     4     5   ar
    18     5     6   ar
    19     6    10    1
    20    10    11   am
    21    11    12    2
    22    11    13   am
    23    13    16    1
    24    16    17    1
    25    17    18    1
    26    18    19    1
    27    19    20    1
    28    20    21    1
    29    21    22    1
    30    22    23    1
    31     6     7   ar
    32     7     8   ar
    33     8     9   ar
    34    31    32   ar
    35    32    33   ar
    36    33    25   ar
    37    32    28   ar
    38     9     1   ar
    39     8     4   ar
    40    23    18    1
    41    10    14    1
    42    13    15    1
