@<TRIPOS>MOLECULE
*****
 29 31 0 0 0
SMALL
GASTEIGER

@<TRIPOS>ATOM
      1 C          63.8046   90.9714   12.3209 C.ar    1  UNL1        0.1346
      2 C          63.4729   91.3859   10.9180 C.ar    1  UNL1        0.0366
      3 C          62.7629   90.4332   10.0024 C.ar    1  UNL1        0.0031
      4 C          62.3845   89.0660   10.4897 C.ar    1  UNL1       -0.0000
      5 C          62.7161   88.6515   11.8926 C.ar    1  UNL1       -0.0013
      6 C          63.4262   89.6042   12.8082 C.ar    1  UNL1        0.0115
      7 C          61.6744   88.1134    9.5742 C.ar    1  UNL1        0.0029
      8 C          60.2370   88.3483    9.2157 C.ar    1  UNL1        0.0207
      9 C          59.5269   87.3956    8.3002 C.ar    1  UNL1        0.0987
     10 N          60.2543   86.2080    7.7430 N.ar    1  UNL1       -0.2426
     11 C          61.6918   85.9731    8.1015 C.ar    1  UNL1        0.1249
     12 C          62.4018   86.9258    9.0170 C.ar    1  UNL1        0.0203
     13 C          62.4192   84.7855    7.5443 C.3     1  UNL1        0.3581
     14 F          63.3888   84.0291    8.4033 F       1  UNL1       -0.1915
     15 F          62.1772   84.3542    6.1282 F       1  UNL1       -0.1915
     16 C          63.7578   89.1895   14.2111 C.3     1  UNL1        0.0253
     17 C          64.3665   88.2051   15.1653 C.3     1  UNL1        0.0048
     18 C          63.7235   89.4559   15.6869 C.3     1  UNL1        0.0048
     19 O          64.5146   91.9240   13.2364 O.3     1  UNL1       -0.4744
     20 C          65.6715   92.7318   12.7275 C.3     1  UNL1        0.2192
     21 C          67.0594   92.1644   12.7714 C.3     1  UNL1        0.0798
     22 C          67.3090   92.6674   11.3804 C.3     1  UNL1        0.0193
     23 N          68.4472   91.5971   12.8153 N.3     1  UNL1       -0.3203
     24 H          69.1224   92.3341   12.6119 H       1  UNL1        0.1189
     25 H          68.5336   90.8556   12.1202 H       1  UNL1        0.1189
     26 C          66.8098   91.6614   14.1623 C.3     1  UNL1        0.0179
     27 C          65.7853   92.6141   16.3516 C.3     1  UNL1        0.0000
     28 C          66.8792   92.6062   15.3252 C.3     1  UNL1        0.0014
     29 C          68.0426   93.5433   15.4619 C.3     1  UNL1        0.0000
@<TRIPOS>BOND
     1    27    28    1
     2    28    29    1
     3    28    26    1
     4    26    21    1
     5    21    22    1
     6    21    23    1
     7    21    20    1
     8    20    19    1
     9    19     1    1
    10     1     2   ar
    11     2     3   ar
    12     3     4   ar
    13     4     7    1
    14     7     8   ar
    15     8     9   ar
    16     9    10   ar
    17    10    11   ar
    18    11    13    1
    19    13    14    1
    20    13    15    1
    21    11    12   ar
    22     4     5   ar
    23     5     6   ar
    24     6    16    1
    25    16    17    1
    26    17    18    1
    27     6     1   ar
    28    18    16    1
    29    12     7   ar
    30    23    24    1
    31    23    25    1
@<TRIPOS>MOLECULE
*****
 29 31 0 0 0
SMALL
GASTEIGER

@<TRIPOS>ATOM
      1 C          63.6457   90.9032   12.0021 C.ar    1  UNL1        0.1346
      2 C          63.1374   91.3478   10.6628 C.ar    1  UNL1        0.0366
      3 C          62.3729   90.3920    9.7957 C.ar    1  UNL1        0.0031
      4 C          62.1167   88.9915   10.2678 C.ar    1  UNL1       -0.0000
      5 C          62.6250   88.5469   11.6072 C.ar    1  UNL1       -0.0013
      6 C          63.3895   89.5027   12.4743 C.ar    1  UNL1        0.0115
      7 C          61.3522   88.0357    9.4007 C.ar    1  UNL1        0.0029
      8 C          59.8874   88.2495    9.1591 C.ar    1  UNL1        0.0207
      9 C          59.1229   87.2937    8.2920 C.ar    1  UNL1        0.0987
     10 N          59.8232   86.1241    7.6664 N.ar    1  UNL1       -0.2426
     11 C          61.2881   85.9103    7.9079 C.ar    1  UNL1        0.1249
     12 C          62.0526   86.8661    8.7751 C.ar    1  UNL1        0.0203
     13 C          61.9886   84.7406    7.2823 C.3     1  UNL1        0.3581
     14 F          63.2952   84.2618    7.8422 F       1  UNL1       -0.1915
     15 F          61.3824   84.0498    6.0969 F       1  UNL1       -0.1915
     16 C          63.8979   89.0580   13.8137 C.3     1  UNL1        0.0253
     17 C          64.3070   89.3804   15.2204 C.3     1  UNL1        0.0048
     18 C          64.3691   87.9653   14.7269 C.3     1  UNL1        0.0048
     19 O          64.4102   91.8590   12.8693 O.3     1  UNL1       -0.4744
     20 C          65.4104   92.7931   12.2553 C.3     1  UNL1        0.2192
     21 C          66.8546   92.3963   12.1719 C.3     1  UNL1        0.0798
     22 C          66.9755   92.5234   13.6616 C.3     1  UNL1        0.0193
     23 N          68.2987   91.9996   12.0885 N.3     1  UNL1       -0.3203
     24 H          68.4664   91.1970   12.6952 H       1  UNL1        0.1189
     25 H          68.8835   92.7799   12.3876 H       1  UNL1        0.1189
     26 C          66.7336   92.2692   10.6822 C.3     1  UNL1        0.0179
     27 C          67.4518   94.5949    9.7737 C.3     1  UNL1        0.0000
     28 C          67.6007   93.1024    9.7855 C.3     1  UNL1        0.0014
     29 C          68.6168   92.4430    8.9007 C.3     1  UNL1        0.0000
@<TRIPOS>BOND
     1    27    28    1
     2    28    29    1
     3    28    26    1
     4    26    21    1
     5    21    22    1
     6    21    23    1
     7    21    20    1
     8    20    19    1
     9    19     1    1
    10     1     2   ar
    11     2     3   ar
    12     3     4   ar
    13     4     7    1
    14     7     8   ar
    15     8     9   ar
    16     9    10   ar
    17    10    11   ar
    18    11    13    1
    19    13    14    1
    20    13    15    1
    21    11    12   ar
    22     4     5   ar
    23     5     6   ar
    24     6    16    1
    25    16    17    1
    26    17    18    1
    27     6     1   ar
    28    18    16    1
    29    12     7   ar
    30    23    24    1
    31    23    25    1
@<TRIPOS>MOLECULE
*****
 29 31 0 0 0
SMALL
GASTEIGER

@<TRIPOS>ATOM
      1 C          65.1836   92.0089   12.7838 C.ar    1  UNL1        0.1346
      2 C          64.0163   91.1745   12.3468 C.ar    1  UNL1        0.0366
      3 C          63.6128   89.9717   13.1471 C.ar    1  UNL1        0.0031
      4 C          64.3766   89.6033   14.3844 C.ar    1  UNL1       -0.0000
      5 C          65.5439   90.4377   14.8213 C.ar    1  UNL1       -0.0013
      6 C          65.9474   91.6405   14.0211 C.ar    1  UNL1        0.0115
      7 C          63.9731   88.4005   15.1846 C.ar    1  UNL1        0.0029
      8 C          63.2209   88.5733   16.4708 C.ar    1  UNL1        0.0207
      9 C          62.8174   87.3705   17.2711 C.ar    1  UNL1        0.0987
     10 N          63.1660   85.9949   16.7852 N.ar    1  UNL1       -0.2426
     11 C          63.9182   85.8221   15.4990 C.ar    1  UNL1        0.1249
     12 C          64.3217   87.0249   14.6987 C.ar    1  UNL1        0.0203
     13 C          64.2669   84.4465   15.0130 C.3     1  UNL1        0.3581
     14 F          65.5464   84.2175   14.2643 F       1  UNL1       -0.1915
     15 F          63.3362   83.2999   15.2757 F       1  UNL1       -0.1915
     16 C          67.1148   92.4750   14.4581 C.3     1  UNL1        0.0253
     17 C          68.5890   92.7522   14.4500 C.3     1  UNL1        0.0048
     18 C          67.6626   93.6431   15.2232 C.3     1  UNL1        0.0048
     19 O          65.5871   93.2117   11.9835 O.3     1  UNL1       -0.4744
     20 C          65.9853   93.0568   10.5457 C.3     1  UNL1        0.2192
     21 C          67.3414   93.5077   10.0902 C.3     1  UNL1        0.0798
     22 C          67.6877   92.0953    9.7227 C.3     1  UNL1        0.0193
     23 N          68.6976   93.9587    9.6347 N.3     1  UNL1       -0.3203
     24 H          68.8473   93.6645    8.6696 H       1  UNL1        0.1189
     25 H          69.4125   93.5428   10.2318 H       1  UNL1        0.1189
     26 C          66.9952   94.9202   10.4577 C.3     1  UNL1        0.0179
     27 C          66.6908   95.8338    8.0447 C.3     1  UNL1        0.0000
     28 C          66.2614   95.7909    9.4813 C.3     1  UNL1        0.0014
     29 C          65.0981   96.6187    9.9414 C.3     1  UNL1        0.0000
@<TRIPOS>BOND
     1    27    28    1
     2    28    29    1
     3    28    26    1
     4    26    21    1
     5    21    22    1
     6    21    23    1
     7    21    20    1
     8    20    19    1
     9    19     1    1
    10     1     2   ar
    11     2     3   ar
    12     3     4   ar
    13     4     7    1
    14     7     8   ar
    15     8     9   ar
    16     9    10   ar
    17    10    11   ar
    18    11    13    1
    19    13    14    1
    20    13    15    1
    21    11    12   ar
    22     4     5   ar
    23     5     6   ar
    24     6    16    1
    25    16    17    1
    26    17    18    1
    27     6     1   ar
    28    18    16    1
    29    12     7   ar
    30    23    24    1
    31    23    25    1
@<TRIPOS>MOLECULE
*****
 29 31 0 0 0
SMALL
GASTEIGER

@<TRIPOS>ATOM
      1 C          64.0027   89.9897   13.5600 C.ar    1  UNL1        0.1346
      2 C          64.5409   89.2278   14.7346 C.ar    1  UNL1        0.0366
      3 C          64.4292   87.7325   14.7736 C.ar    1  UNL1        0.0031
      4 C          63.7793   86.9990   13.6379 C.ar    1  UNL1       -0.0000
      5 C          63.2412   87.7609   12.4633 C.ar    1  UNL1       -0.0013
      6 C          63.3529   89.2563   12.4243 C.ar    1  UNL1        0.0115
      7 C          63.6676   85.5037   13.6769 C.ar    1  UNL1        0.0029
      8 C          63.5486   84.7946   14.9933 C.ar    1  UNL1        0.0207
      9 C          63.4369   83.2993   15.0323 C.ar    1  UNL1        0.0987
     10 N          63.4443   82.5131   13.7549 N.ar    1  UNL1       -0.2426
     11 C          63.5633   83.2222   12.4386 C.ar    1  UNL1        0.1249
     12 C          63.6750   84.7175   12.3996 C.ar    1  UNL1        0.0203
     13 C          63.5707   82.4360   11.1611 C.3     1  UNL1        0.3581
     14 F          64.2676   82.9804    9.9494 F       1  UNL1       -0.1915
     15 F          62.8813   81.1054   11.0953 F       1  UNL1       -0.1915
     16 C          62.8147   90.0182   11.2496 C.3     1  UNL1        0.0253
     17 C          61.7100   90.2867   10.2710 C.3     1  UNL1        0.0048
     18 C          62.9873   91.0693   10.1935 C.3     1  UNL1        0.0048
     19 O          64.1144   91.4850   13.5210 O.3     1  UNL1       -0.4744
     20 C          65.3345   92.1606   14.0731 C.3     1  UNL1        0.2192
     21 C          66.6387   92.0717   13.3375 C.3     1  UNL1        0.0798
     22 C          67.3407   91.7435   14.6218 C.3     1  UNL1        0.0193
     23 N          67.9429   91.9828   12.6019 N.3     1  UNL1       -0.3203
     24 H          68.3701   91.0731   12.7760 H       1  UNL1        0.1189
     25 H          68.5680   92.7199   12.9278 H       1  UNL1        0.1189
     26 C          65.9367   92.4000   12.0532 C.3     1  UNL1        0.0179
     27 C          66.8094   93.4792    9.8569 C.3     1  UNL1        0.0000
     28 C          66.3323   93.6180   11.2723 C.3     1  UNL1        0.0014
     29 C          66.2509   94.9748   11.9067 C.3     1  UNL1        0.0000
@<TRIPOS>BOND
     1    27    28    1
     2    28    29    1
     3    28    26    1
     4    26    21    1
     5    21    22    1
     6    21    23    1
     7    21    20    1
     8    20    19    1
     9    19     1    1
    10     1     2   ar
    11     2     3   ar
    12     3     4   ar
    13     4     7    1
    14     7     8   ar
    15     8     9   ar
    16     9    10   ar
    17    10    11   ar
    18    11    13    1
    19    13    14    1
    20    13    15    1
    21    11    12   ar
    22     4     5   ar
    23     5     6   ar
    24     6    16    1
    25    16    17    1
    26    17    18    1
    27     6     1   ar
    28    18    16    1
    29    12     7   ar
    30    23    24    1
    31    23    25    1
@<TRIPOS>MOLECULE
*****
 29 31 0 0 0
SMALL
GASTEIGER

@<TRIPOS>ATOM
      1 C          63.8883   89.8251   13.4360 C.ar    1  UNL1        0.1346
      2 C          64.4499   89.1078   14.6277 C.ar    1  UNL1        0.0366
      3 C          64.3779   87.6115   14.7051 C.ar    1  UNL1        0.0031
      4 C          63.7442   86.8325   13.5908 C.ar    1  UNL1       -0.0000
      5 C          63.1826   87.5498   12.3992 C.ar    1  UNL1       -0.0013
      6 C          63.2546   89.0460   12.3218 C.ar    1  UNL1        0.0115
      7 C          63.6722   85.3362   13.6682 C.ar    1  UNL1        0.0029
      8 C          63.5607   84.6587   15.0018 C.ar    1  UNL1        0.0207
      9 C          63.4887   83.1625   15.0792 C.ar    1  UNL1        0.0987
     10 N          63.5281   82.3437   13.8231 N.ar    1  UNL1       -0.2426
     11 C          63.6395   83.0212   12.4895 C.ar    1  UNL1        0.1249
     12 C          63.7115   84.5175   12.4121 C.ar    1  UNL1        0.0203
     13 C          63.6789   82.2025   11.2332 C.3     1  UNL1        0.3581
     14 F          64.4482   82.6925   10.0424 F       1  UNL1       -0.1915
     15 F          62.9490   80.8937   11.1678 F       1  UNL1       -0.1915
     16 C          62.6929   89.7633   11.1301 C.3     1  UNL1        0.0253
     17 C          61.6328   89.9019   10.0780 C.3     1  UNL1        0.0048
     18 C          62.7803   90.8670   10.1181 C.3     1  UNL1        0.0048
     19 O          63.9603   91.3213   13.3586 O.3     1  UNL1       -0.4744
     20 C          65.1636   92.0427   13.8893 C.3     1  UNL1        0.2192
     21 C          66.3740   92.2216   13.0215 C.3     1  UNL1        0.0798
     22 C          65.5190   92.8424   11.9569 C.3     1  UNL1        0.0193
     23 N          67.5844   92.4005   12.1538 N.3     1  UNL1       -0.3203
     24 H          67.6686   93.3810   11.8857 H       1  UNL1        0.1189
     25 H          67.4902   91.8259   11.3162 H       1  UNL1        0.1189
     26 C          67.2290   91.6007   14.0862 C.3     1  UNL1        0.0179
     27 C          66.7512   92.7084   16.3872 C.3     1  UNL1        0.0000
     28 C          67.6900   92.4236   15.2525 C.3     1  UNL1        0.0014
     29 C          69.0899   92.9617   15.2842 C.3     1  UNL1        0.0000
@<TRIPOS>BOND
     1    27    28    1
     2    28    29    1
     3    28    26    1
     4    26    21    1
     5    21    22    1
     6    21    23    1
     7    21    20    1
     8    20    19    1
     9    19     1    1
    10     1     2   ar
    11     2     3   ar
    12     3     4   ar
    13     4     7    1
    14     7     8   ar
    15     8     9   ar
    16     9    10   ar
    17    10    11   ar
    18    11    13    1
    19    13    14    1
    20    13    15    1
    21    11    12   ar
    22     4     5   ar
    23     5     6   ar
    24     6    16    1
    25    16    17    1
    26    17    18    1
    27     6     1   ar
    28    18    16    1
    29    12     7   ar
    30    23    24    1
    31    23    25    1
@<TRIPOS>MOLECULE
*****
 29 31 0 0 0
SMALL
GASTEIGER

@<TRIPOS>ATOM
      1 C          63.1358   87.0537   12.4775 C.ar    1  UNL1        0.1346
      2 C          63.8923   86.7878   13.7451 C.ar    1  UNL1        0.0366
      3 C          64.4370   87.9320   14.5476 C.ar    1  UNL1        0.0031
      4 C          64.2252   89.3422   14.0825 C.ar    1  UNL1       -0.0000
      5 C          63.4687   89.6082   12.8148 C.ar    1  UNL1       -0.0013
      6 C          62.9240   88.4639   12.0124 C.ar    1  UNL1        0.0115
      7 C          64.7699   90.4865   14.8849 C.ar    1  UNL1        0.0029
      8 C          63.9669   91.0595   16.0149 C.ar    1  UNL1        0.0207
      9 C          64.5116   92.2037   16.8174 C.ar    1  UNL1        0.0987
     10 N          65.8593   92.7750   16.4899 N.ar    1  UNL1       -0.2426
     11 C          66.6623   92.2020   15.3600 C.ar    1  UNL1        0.1249
     12 C          66.1176   91.0577   14.5575 C.ar    1  UNL1        0.0203
     13 C          68.0101   92.7732   15.0325 C.3     1  UNL1        0.3581
     14 F          68.8619   92.1291   13.9792 F       1  UNL1       -0.1915
     15 F          68.5061   93.9886   15.7583 F       1  UNL1       -0.1915
     16 C          62.1675   88.7299   10.7447 C.3     1  UNL1        0.0253
     17 C          61.5930   89.6983    9.7535 C.3     1  UNL1        0.0048
     18 C          61.4316   88.2223    9.5402 C.3     1  UNL1        0.0048
     19 O          62.5911   85.9095   11.6750 O.3     1  UNL1       -0.4744
     20 C          62.7208   84.5055   12.1869 C.3     1  UNL1        0.2192
     21 C          63.8148   83.6176   11.6723 C.3     1  UNL1        0.0798
     22 C          63.4728   84.0113   10.2659 C.3     1  UNL1        0.0193
     23 N          64.9088   82.7298   11.1577 N.3     1  UNL1       -0.3203
     24 H          65.5415   83.2745   10.5718 H       1  UNL1        0.1189
     25 H          64.5022   81.9734   10.6072 H       1  UNL1        0.1189
     26 C          64.1568   83.2239   13.0787 C.3     1  UNL1        0.0179
     27 C          62.5189   81.2622   13.5463 C.3     1  UNL1        0.0000
     28 C          63.1214   82.5756   13.9489 C.3     1  UNL1        0.0014
     29 C          62.6883   83.2406   15.2219 C.3     1  UNL1        0.0000
@<TRIPOS>BOND
     1    27    28    1
     2    28    29    1
     3    28    26    1
     4    26    21    1
     5    21    22    1
     6    21    23    1
     7    21    20    1
     8    20    19    1
     9    19     1    1
    10     1     2   ar
    11     2     3   ar
    12     3     4   ar
    13     4     7    1
    14     7     8   ar
    15     8     9   ar
    16     9    10   ar
    17    10    11   ar
    18    11    13    1
    19    13    14    1
    20    13    15    1
    21    11    12   ar
    22     4     5   ar
    23     5     6   ar
    24     6    16    1
    25    16    17    1
    26    17    18    1
    27     6     1   ar
    28    18    16    1
    29    12     7   ar
    30    23    24    1
    31    23    25    1
@<TRIPOS>MOLECULE
*****
 29 31 0 0 0
SMALL
GASTEIGER

@<TRIPOS>ATOM
      1 C          63.6248   88.6156   13.4747 C.ar    1  UNL1        0.1346
      2 C          64.1826   87.5376   14.3560 C.ar    1  UNL1        0.0366
      3 C          64.0831   86.1005   13.9378 C.ar    1  UNL1        0.0031
      4 C          63.4258   85.7414   12.6382 C.ar    1  UNL1       -0.0000
      5 C          62.8680   86.8194   11.7569 C.ar    1  UNL1       -0.0013
      6 C          62.9675   88.2564   12.1751 C.ar    1  UNL1        0.0115
      7 C          63.3263   84.3043   12.2200 C.ar    1  UNL1        0.0029
      8 C          63.9196   83.8599   10.9161 C.ar    1  UNL1        0.0207
      9 C          63.8201   82.4228   10.4979 C.ar    1  UNL1        0.0987
     10 N          63.1273   81.4302   11.3836 N.ar    1  UNL1       -0.2426
     11 C          62.5339   81.8746   12.6876 C.ar    1  UNL1        0.1249
     12 C          62.6334   83.3117   13.1058 C.ar    1  UNL1        0.0203
     13 C          61.8410   80.8820   13.5734 C.3     1  UNL1        0.3581
     14 F          62.1848   79.4249   13.4796 F       1  UNL1       -0.1915
     15 F          60.8043   81.3464   14.5529 F       1  UNL1       -0.1915
     16 C          62.4097   89.3344   11.2936 C.3     1  UNL1        0.0253
     17 C          62.4146   90.0807    9.9925 C.3     1  UNL1        0.0048
     18 C          61.4386   90.4552   11.0682 C.3     1  UNL1        0.0048
     19 O          63.7243   90.0526   13.8929 O.3     1  UNL1       -0.4744
     20 C          64.9332   90.5347   14.6387 C.3     1  UNL1        0.2192
     21 C          64.7950   91.6085   15.6769 C.3     1  UNL1        0.0798
     22 C          63.8331   90.7470   16.4400 C.3     1  UNL1        0.0193
     23 N          64.6569   92.6823   16.7151 N.3     1  UNL1       -0.3203
     24 H          64.8761   92.2972   17.6338 H       1  UNL1        0.1189
     25 H          63.7000   93.0354   16.7139 H       1  UNL1        0.1189
     26 C          65.7570   92.4701   14.9138 C.3     1  UNL1        0.0179
     27 C          67.9929   92.1863   16.2061 C.3     1  UNL1        0.0000
     28 C          67.2216   92.1463   14.9203 C.3     1  UNL1        0.0014
     29 C          67.9150   91.7825   13.6408 C.3     1  UNL1        0.0000
@<TRIPOS>BOND
     1    27    28    1
     2    28    29    1
     3    28    26    1
     4    26    21    1
     5    21    22    1
     6    21    23    1
     7    21    20    1
     8    20    19    1
     9    19     1    1
    10     1     2   ar
    11     2     3   ar
    12     3     4   ar
    13     4     7    1
    14     7     8   ar
    15     8     9   ar
    16     9    10   ar
    17    10    11   ar
    18    11    13    1
    19    13    14    1
    20    13    15    1
    21    11    12   ar
    22     4     5   ar
    23     5     6   ar
    24     6    16    1
    25    16    17    1
    26    17    18    1
    27     6     1   ar
    28    18    16    1
    29    12     7   ar
    30    23    24    1
    31    23    25    1
@<TRIPOS>MOLECULE
*****
 29 31 0 0 0
SMALL
GASTEIGER

@<TRIPOS>ATOM
      1 C          62.9714   87.7744   12.5041 C.ar    1  UNL1        0.1346
      2 C          62.7631   88.9968   11.6602 C.ar    1  UNL1        0.0366
      3 C          63.4926   90.2664   11.9859 C.ar    1  UNL1        0.0031
      4 C          64.4304   90.3134   13.1556 C.ar    1  UNL1       -0.0000
      5 C          64.6387   89.0910   13.9995 C.ar    1  UNL1       -0.0013
      6 C          63.9092   87.8215   13.6738 C.ar    1  UNL1        0.0115
      7 C          65.1600   91.5829   13.4814 C.ar    1  UNL1        0.0029
      8 C          65.6671   91.8206   14.8729 C.ar    1  UNL1        0.0207
      9 C          66.3967   93.0901   15.1986 C.ar    1  UNL1        0.0987
     10 N          66.6190   94.1220   14.1329 N.ar    1  UNL1       -0.2426
     11 C          66.1119   93.8843   12.7414 C.ar    1  UNL1        0.1249
     12 C          65.3823   92.6148   12.4157 C.ar    1  UNL1        0.0203
     13 C          66.3342   94.9162   11.6756 C.3     1  UNL1        0.3581
     14 F          67.0453   94.5443   10.4083 F       1  UNL1       -0.1915
     15 F          65.8455   96.3199   11.8772 F       1  UNL1       -0.1915
     16 C          64.1175   86.5990   14.5177 C.3     1  UNL1        0.0253
     17 C          64.6946   85.2259   14.6952 C.3     1  UNL1        0.0048
     18 C          63.9013   85.8549   15.8020 C.3     1  UNL1        0.0048
     19 O          62.2418   86.5049   12.1783 O.3     1  UNL1       -0.4744
     20 C          61.9512   86.1523   10.7496 C.3     1  UNL1        0.2192
     21 C          62.7472   85.0813   10.0646 C.3     1  UNL1        0.0798
     22 C          62.7760   84.2885   11.3376 C.3     1  UNL1        0.0193
     23 N          63.5432   84.0103    9.3796 N.3     1  UNL1       -0.3203
     24 H          63.0646   83.1150    9.4786 H       1  UNL1        0.1189
     25 H          64.4685   83.9499    9.8046 H       1  UNL1        0.1189
     26 C          62.7185   85.8741    8.7916 C.3     1  UNL1        0.0179
     27 C          60.3019   86.0880    7.8619 C.3     1  UNL1        0.0000
     28 C          61.7004   85.5606    7.7356 C.3     1  UNL1        0.0014
     29 C          62.0808   84.7196    6.5531 C.3     1  UNL1        0.0000
@<TRIPOS>BOND
     1    27    28    1
     2    28    29    1
     3    28    26    1
     4    26    21    1
     5    21    22    1
     6    21    23    1
     7    21    20    1
     8    20    19    1
     9    19     1    1
    10     1     2   ar
    11     2     3   ar
    12     3     4   ar
    13     4     7    1
    14     7     8   ar
    15     8     9   ar
    16     9    10   ar
    17    10    11   ar
    18    11    13    1
    19    13    14    1
    20    13    15    1
    21    11    12   ar
    22     4     5   ar
    23     5     6   ar
    24     6    16    1
    25    16    17    1
    26    17    18    1
    27     6     1   ar
    28    18    16    1
    29    12     7   ar
    30    23    24    1
    31    23    25    1
@<TRIPOS>MOLECULE
*****
 29 31 0 0 0
SMALL
GASTEIGER

@<TRIPOS>ATOM
      1 C          61.9264   88.9026   10.6926 C.ar    1  UNL1        0.1346
      2 C          61.9404   90.3437   10.2767 C.ar    1  UNL1        0.0366
      3 C          62.8882   91.3043   10.9319 C.ar    1  UNL1        0.0031
      4 C          63.8219   90.8237   12.0029 C.ar    1  UNL1       -0.0000
      5 C          63.8079   89.3826   12.4187 C.ar    1  UNL1       -0.0013
      6 C          62.8602   88.4221   11.7636 C.ar    1  UNL1        0.0115
      7 C          64.7696   91.7842   12.6580 C.ar    1  UNL1        0.0029
      8 C          65.4116   92.8729   11.8503 C.ar    1  UNL1        0.0207
      9 C          66.3593   93.8334   12.5055 C.ar    1  UNL1        0.0987
     10 N          66.6651   93.7052   13.9683 N.ar    1  UNL1       -0.2426
     11 C          66.0232   92.6164   14.7760 C.ar    1  UNL1        0.1249
     12 C          65.0754   91.6559   14.1209 C.ar    1  UNL1        0.0203
     13 C          66.3289   92.4881   16.2390 C.3     1  UNL1        0.3581
     14 F          67.7445   92.2930   16.6950 F       1  UNL1       -0.1915
     15 F          65.2191   92.5550   17.2458 F       1  UNL1       -0.1915
     16 C          62.8462   86.9809   12.1795 C.3     1  UNL1        0.0253
     17 C          63.3202   85.8868   13.0896 C.3     1  UNL1        0.0048
     18 C          62.3481   85.5788   11.9896 C.3     1  UNL1        0.0048
     19 O          60.9787   87.9421   10.0374 O.3     1  UNL1       -0.4744
     20 C          60.6558   88.0839    8.5795 C.3     1  UNL1        0.2192
     21 C          59.6696   87.1548    7.9359 C.3     1  UNL1        0.0798
     22 C          58.9315   88.3311    7.3689 C.3     1  UNL1        0.0193
     23 N          58.6834   86.2257    7.2923 N.3     1  UNL1       -0.3203
     24 H          58.6410   86.4154    6.2910 H       1  UNL1        0.1189
     25 H          57.7617   86.3694    7.7049 H       1  UNL1        0.1189
     26 C          60.4078   85.9785    8.5029 C.3     1  UNL1        0.0179
     27 C          62.9644   85.5217    8.4323 C.3     1  UNL1        0.0000
     28 C          61.6110   85.4343    7.7915 C.3     1  UNL1        0.0014
     29 C          61.4608   84.8026    6.4392 C.3     1  UNL1        0.0000
@<TRIPOS>BOND
     1    27    28    1
     2    28    29    1
     3    28    26    1
     4    26    21    1
     5    21    22    1
     6    21    23    1
     7    21    20    1
     8    20    19    1
     9    19     1    1
    10     1     2   ar
    11     2     3   ar
    12     3     4   ar
    13     4     7    1
    14     7     8   ar
    15     8     9   ar
    16     9    10   ar
    17    10    11   ar
    18    11    13    1
    19    13    14    1
    20    13    15    1
    21    11    12   ar
    22     4     5   ar
    23     5     6   ar
    24     6    16    1
    25    16    17    1
    26    17    18    1
    27     6     1   ar
    28    18    16    1
    29    12     7   ar
    30    23    24    1
    31    23    25    1
