@<TRIPOS>MOLECULE
*****
 39 45 0 0 0
SMALL
GASTEIGER

@<TRIPOS>ATOM
      1 C          61.3863   92.6109    2.5917 C.2     1  UNL1       -0.0378
      2 C          62.1416   91.6123    3.4178 C.2     1  UNL1       -0.0080
      3 C          61.4421   90.8620    4.5123 C.2     1  UNL1        0.0022
      4 C          59.9873   91.1104    4.7807 C.2     1  UNL1        0.0350
      5 C          59.0379   90.5263    5.7843 C.2     1  UNL1        0.1040
      6 N          57.6958   91.1638    5.5785 N.2     1  UNL1       -0.1483
      7 N          57.8158   92.1420    4.4477 N.2     1  UNL1       -0.1520
      8 C          59.2321   92.1090    3.9546 C.2     1  UNL1        0.0860
      9 C          59.9315   92.8592    2.8601 C.3     1  UNL1        0.0697
     10 C          64.3513   95.8722   -2.6414 C.ar    1  UNL1        0.1385
     11 C          63.6131   95.4049   -3.8607 C.ar    1  UNL1        0.0382
     12 C          62.4889   94.4211   -3.7258 C.ar    1  UNL1        0.0175
     13 C          62.1029   93.9045   -2.3715 C.ar    1  UNL1        0.0469
     14 C          62.8410   94.3717   -1.1521 C.ar    1  UNL1        0.0022
     15 C          63.9652   95.3556   -1.2870 C.ar    1  UNL1        0.0343
     16 C          62.2398   93.6922    0.0424 C.3     1  UNL1        0.0928
     17 C          63.1431   94.3293    1.0563 C.3     1  UNL1        0.0179
     18 C          62.0857   93.3611    1.4972 C.3     1  UNL1        0.0315
     19 C          61.1301   92.8050   -0.4388 C.2     1  UNL1        0.2293
     20 O          60.2582   91.9387    0.4210 O.2     1  UNL1       -0.2744
     21 N          61.0455   92.9362   -1.9306 N.am    1  UNL1       -0.2839
     22 H          60.4079   92.4689   -2.5174 H       1  UNL1        0.1549
     23 C          66.3297   96.8543   -4.0092 C.3     1  UNL1        0.2525
     24 O          65.4755   96.8560   -2.7763 O.3     1  UNL1       -0.4714
     25 C          59.3719   89.4870    6.8131 C.2     1  UNL1        0.0209
     26 C          60.4166   89.7687    7.8520 C.2     1  UNL1        0.0016
     27 C          60.7506   88.7295    8.8808 C.ar    1  UNL1        0.0000
     28 C          61.6479   89.0752   10.0321 C.ar    1  UNL1       -0.0003
     29 C          61.9820   88.0361   11.0610 C.ar    1  UNL1       -0.0029
     30 C          61.4188   86.6513   10.9385 C.ar    1  UNL1       -0.0061
     31 C          60.5216   86.3055    9.7873 C.ar    1  UNL1       -0.0029
     32 C          60.1875   87.3447    8.7584 C.ar    1  UNL1       -0.0003
     33 C          61.7529   85.6121   11.9674 C.3     1  UNL1        0.0993
     34 N          62.7087   84.5056   11.6329 N.3     1  UNL1       -0.2646
     35 C          63.0695   83.4863   12.6727 C.3     1  UNL1        0.1049
     36 C          64.0253   82.3797   12.3383 C.3     1  UNL1        0.1595
     37 O          64.6202   82.2922   10.9640 O.3     1  UNL1       -0.3508
     38 C          64.2594   83.3114    9.9243 C.3     1  UNL1        0.1595
     39 C          63.3036   84.4181   10.2587 C.3     1  UNL1        0.1049
@<TRIPOS>BOND
     1    23    24    1
     2    24    10    1
     3    10    11   ar
     4    11    12   ar
     5    12    13   ar
     6    13    14   ar
     7    14    15   ar
     8    14    16    1
     9    16    17    1
    10    17    18    1
    11    18     1    1
    12     1     2    2
    13     2     3    1
    14     3     4    2
    15     4     5    1
    16     5    25    1
    17    25    26    2
    18    26    27    1
    19    27    28   ar
    20    28    29   ar
    21    29    30   ar
    22    30    33    1
    23    33    34    1
    24    34    35    1
    25    35    36    1
    26    36    37    1
    27    37    38    1
    28    38    39    1
    29    30    31   ar
    30    31    32   ar
    31     5     6    2
    32     6     7    1
    33     7     8    2
    34     8     9    1
    35    16    19    1
    36    19    20    2
    37    19    21   am
    38    15    10   ar
    39    18    16    1
    40     9     1    1
    41    21    13    1
    42     8     4    1
    43    32    27   ar
    44    39    34    1
    45    21    22    1
@<TRIPOS>MOLECULE
*****
 39 45 0 0 0
SMALL
GASTEIGER

@<TRIPOS>ATOM
      1 C          61.9543   92.7928    1.4768 C.2     1  UNL1       -0.0378
      2 C          62.8241   91.9668    2.3773 C.2     1  UNL1       -0.0080
      3 C          62.2575   91.3815    3.6370 C.2     1  UNL1        0.0022
      4 C          60.8212   91.6224    3.9959 C.2     1  UNL1        0.0350
      5 C          59.9902   91.1780    5.1629 C.2     1  UNL1        0.1040
      6 N          58.6068   91.7295    4.9837 N.2     1  UNL1       -0.1483
      7 N          58.5828   92.5146    3.7058 N.2     1  UNL1       -0.1520
      8 C          59.9514   92.4485    3.0953 C.2     1  UNL1        0.0860
      9 C          60.5179   93.0337    1.8358 C.3     1  UNL1        0.0697
     10 C          64.7497   95.6790   -4.0611 C.ar    1  UNL1        0.1385
     11 C          65.7273   96.6831   -3.5262 C.ar    1  UNL1        0.0382
     12 C          65.8944   96.8518   -2.0451 C.ar    1  UNL1        0.0175
     13 C          65.0839   96.0164   -1.0990 C.ar    1  UNL1        0.0469
     14 C          64.1064   95.0123   -1.6338 C.ar    1  UNL1        0.0022
     15 C          63.9392   94.8435   -3.1149 C.ar    1  UNL1        0.0343
     16 C          63.4510   94.3360   -0.4663 C.3     1  UNL1        0.0928
     17 C          62.5720   93.4338   -1.2808 C.3     1  UNL1        0.0179
     18 C          62.5209   93.3780    0.2172 C.3     1  UNL1        0.0315
     19 C          64.0236   94.9221    0.7901 C.2     1  UNL1        0.2293
     20 O          63.6522   94.5372    2.1915 O.2     1  UNL1       -0.2744
     21 N          65.0328   95.9607    0.3992 N.am    1  UNL1       -0.2839
     22 H          65.5677   96.5094    1.0173 H       1  UNL1        0.1549
     23 C          65.3797   94.4710   -6.2733 C.3     1  UNL1        0.2525
     24 O          64.5826   95.5102   -5.5422 O.3     1  UNL1       -0.4714
     25 C          60.4601   90.3309    6.3082 C.2     1  UNL1        0.0209
     26 C          59.5468   89.3003    6.9030 C.2     1  UNL1        0.0016
     27 C          60.0166   88.4532    8.0483 C.ar    1  UNL1        0.0000
     28 C          60.5361   89.1017    9.2970 C.ar    1  UNL1       -0.0003
     29 C          61.0060   88.2547   10.4424 C.ar    1  UNL1       -0.0029
     30 C          60.9563   86.7591   10.3388 C.ar    1  UNL1       -0.0061
     31 C          60.4368   86.1106    9.0900 C.ar    1  UNL1       -0.0029
     32 C          59.9669   86.9576    7.9447 C.ar    1  UNL1       -0.0003
     33 C          61.4261   85.9120   11.4841 C.3     1  UNL1        0.0993
     34 N          62.5062   84.8935   11.2701 N.3     1  UNL1       -0.2646
     35 C          63.0448   84.6498    9.8914 C.3     1  UNL1        0.1049
     36 C          64.1249   83.6313    9.6773 C.3     1  UNL1        0.1595
     37 O          64.6665   82.8563   10.8419 O.3     1  UNL1       -0.3508
     38 C          64.1279   83.1000   12.2205 C.3     1  UNL1        0.1595
     39 C          63.0478   84.1185   12.4346 C.3     1  UNL1        0.1049
@<TRIPOS>BOND
     1    23    24    1
     2    24    10    1
     3    10    11   ar
     4    11    12   ar
     5    12    13   ar
     6    13    14   ar
     7    14    15   ar
     8    14    16    1
     9    16    17    1
    10    17    18    1
    11    18     1    1
    12     1     2    2
    13     2     3    1
    14     3     4    2
    15     4     5    1
    16     5    25    1
    17    25    26    2
    18    26    27    1
    19    27    28   ar
    20    28    29   ar
    21    29    30   ar
    22    30    33    1
    23    33    34    1
    24    34    35    1
    25    35    36    1
    26    36    37    1
    27    37    38    1
    28    38    39    1
    29    30    31   ar
    30    31    32   ar
    31     5     6    2
    32     6     7    1
    33     7     8    2
    34     8     9    1
    35    16    19    1
    36    19    20    2
    37    19    21   am
    38    15    10   ar
    39    18    16    1
    40     9     1    1
    41    21    13    1
    42     8     4    1
    43    32    27   ar
    44    39    34    1
    45    21    22    1
@<TRIPOS>MOLECULE
*****
 39 45 0 0 0
SMALL
GASTEIGER

@<TRIPOS>ATOM
      1 C          61.3797   92.5404    1.8470 C.2     1  UNL1       -0.0378
      2 C          62.3270   91.7424    2.6931 C.2     1  UNL1       -0.0080
      3 C          61.8576   91.1489    3.9883 C.2     1  UNL1        0.0022
      4 C          60.4411   91.3533    4.4373 C.2     1  UNL1        0.0350
      5 C          59.6983   90.8931    5.6565 C.2     1  UNL1        0.1040
      6 N          58.2920   91.4066    5.5639 N.2     1  UNL1       -0.1483
      7 N          58.1656   92.1842    4.2875 N.2     1  UNL1       -0.1520
      8 C          59.4939   92.1513    3.5912 C.2     1  UNL1        0.0860
      9 C          59.9631   92.7448    2.2960 C.3     1  UNL1        0.0697
     10 C          63.7791   95.4275   -3.8731 C.ar    1  UNL1        0.1385
     11 C          64.9245   96.2864   -3.4257 C.ar    1  UNL1        0.0382
     12 C          65.2926   96.3484   -1.9728 C.ar    1  UNL1        0.0175
     13 C          64.5152   95.5516   -0.9675 C.ar    1  UNL1        0.0469
     14 C          63.3697   94.6927   -1.4150 C.ar    1  UNL1        0.0022
     15 C          63.0016   94.6306   -2.8678 C.ar    1  UNL1        0.0343
     16 C          62.7910   94.0238   -0.2035 C.3     1  UNL1        0.0928
     17 C          61.7197   93.2719   -0.9362 C.3     1  UNL1        0.0179
     18 C          61.8490   93.1339    0.5518 C.3     1  UNL1        0.0315
     19 C          63.5789   94.4693    0.9927 C.2     1  UNL1        0.2293
     20 O          63.3426   94.0451    2.4119 O.2     1  UNL1       -0.2744
     21 N          64.6445   95.4135    0.5205 N.am    1  UNL1       -0.2839
     22 H          65.3116   95.8636    1.0877 H       1  UNL1        0.1549
     23 C          63.0527   94.0510   -5.9534 C.3     1  UNL1        0.2525
     24 O          63.4109   95.3655   -5.3259 O.3     1  UNL1       -0.4714
     25 C          60.2628   90.0648    6.7725 C.2     1  UNL1        0.0209
     26 C          59.5766   88.7968    7.1865 C.2     1  UNL1        0.0016
     27 C          60.1411   87.9684    8.3024 C.ar    1  UNL1        0.0000
     28 C          60.9249   86.7276    7.9929 C.ar    1  UNL1       -0.0003
     29 C          61.4894   85.8991    9.1087 C.ar    1  UNL1       -0.0029
     30 C          61.2699   86.3116   10.5341 C.ar    1  UNL1       -0.0061
     31 C          60.4860   87.5525   10.8436 C.ar    1  UNL1       -0.0029
     32 C          59.9216   88.3809    9.7278 C.ar    1  UNL1       -0.0003
     33 C          61.8343   85.4832   11.6499 C.3     1  UNL1        0.0993
     34 N          62.7720   86.1023   12.6435 N.3     1  UNL1       -0.2646
     35 C          63.3859   85.2592   13.7218 C.3     1  UNL1        0.1049
     36 C          64.3236   85.8783   14.7154 C.3     1  UNL1        0.1595
     37 O          64.6474   87.3405   14.6309 O.3     1  UNL1       -0.3508
     38 C          64.0336   88.1836   13.5528 C.3     1  UNL1        0.1595
     39 C          63.0959   87.5645   12.5591 C.3     1  UNL1        0.1049
@<TRIPOS>BOND
     1    23    24    1
     2    24    10    1
     3    10    11   ar
     4    11    12   ar
     5    12    13   ar
     6    13    14   ar
     7    14    15   ar
     8    14    16    1
     9    16    17    1
    10    17    18    1
    11    18     1    1
    12     1     2    2
    13     2     3    1
    14     3     4    2
    15     4     5    1
    16     5    25    1
    17    25    26    2
    18    26    27    1
    19    27    28   ar
    20    28    29   ar
    21    29    30   ar
    22    30    33    1
    23    33    34    1
    24    34    35    1
    25    35    36    1
    26    36    37    1
    27    37    38    1
    28    38    39    1
    29    30    31   ar
    30    31    32   ar
    31     5     6    2
    32     6     7    1
    33     7     8    2
    34     8     9    1
    35    16    19    1
    36    19    20    2
    37    19    21   am
    38    15    10   ar
    39    18    16    1
    40     9     1    1
    41    21    13    1
    42     8     4    1
    43    32    27   ar
    44    39    34    1
    45    21    22    1
@<TRIPOS>MOLECULE
*****
 39 45 0 0 0
SMALL
GASTEIGER

@<TRIPOS>ATOM
      1 C          61.9628   92.8391    1.7078 C.2     1  UNL1       -0.0378
      2 C          62.8511   91.9067    2.4770 C.2     1  UNL1       -0.0080
      3 C          62.3288   91.2103    3.6987 C.2     1  UNL1        0.0022
      4 C          60.9183   91.4463    4.1510 C.2     1  UNL1        0.0350
      5 C          60.1315   90.9054    5.3079 C.2     1  UNL1        0.1040
      6 N          58.7569   91.5034    5.2537 N.2     1  UNL1       -0.1483
      7 N          58.6942   92.4140    4.0634 N.2     1  UNL1       -0.1520
      8 C          60.0300   92.3787    3.3819 C.2     1  UNL1        0.0860
      9 C          60.5522   93.0750    2.1603 C.3     1  UNL1        0.0697
     10 C          64.0642   95.8736   -4.0530 C.ar    1  UNL1        0.1385
     11 C          63.0632   95.4693   -5.0944 C.ar    1  UNL1        0.0382
     12 C          61.9160   94.5761   -4.7251 C.ar    1  UNL1        0.0175
     13 C          61.7700   94.0873   -3.3146 C.ar    1  UNL1        0.0469
     14 C          62.7709   94.4917   -2.2732 C.ar    1  UNL1        0.0022
     15 C          63.9181   95.3849   -2.6424 C.ar    1  UNL1        0.0343
     16 C          62.3701   93.8578   -0.9742 C.3     1  UNL1        0.0928
     17 C          63.5045   94.4192   -0.1692 C.3     1  UNL1        0.0179
     18 C          62.4851   93.5354    0.4863 C.3     1  UNL1        0.0315
     19 C          61.1214   93.0617   -1.2127 C.2     1  UNL1        0.2293
     20 O          60.3747   92.2638   -0.1852 O.2     1  UNL1       -0.2744
     21 N          60.7504   93.2035   -2.6591 N.am    1  UNL1       -0.2839
     22 H          59.9742   92.7892   -3.1008 H       1  UNL1        0.1549
     23 C          65.6635   96.8556   -5.8496 C.3     1  UNL1        0.2525
     24 O          65.2113   96.7668   -4.4222 O.3     1  UNL1       -0.4714
     25 C          60.6315   89.9365    6.3381 C.2     1  UNL1        0.0209
     26 C          59.7065   89.4344    7.4069 C.2     1  UNL1        0.0016
     27 C          60.2064   88.4655    8.4371 C.ar    1  UNL1        0.0000
     28 C          60.6949   88.9671    9.7637 C.ar    1  UNL1       -0.0003
     29 C          61.1948   87.9983   10.7940 C.ar    1  UNL1       -0.0029
     30 C          61.2062   86.5279   10.4976 C.ar    1  UNL1       -0.0061
     31 C          60.7177   86.0263    9.1711 C.ar    1  UNL1       -0.0029
     32 C          60.2178   86.9951    8.1408 C.ar    1  UNL1       -0.0003
     33 C          61.7062   85.5591   11.5279 C.3     1  UNL1        0.0993
     34 N          62.6707   86.0162   12.5817 N.3     1  UNL1       -0.2646
     35 C          63.1811   85.0441   13.6038 C.3     1  UNL1        0.1049
     36 C          64.1457   85.5012   14.6576 C.3     1  UNL1        0.1595
     37 O          64.5998   86.9305   14.6895 O.3     1  UNL1       -0.3508
     38 C          64.0894   87.9026   13.6675 C.3     1  UNL1        0.1595
     39 C          63.1248   87.4455   12.6137 C.3     1  UNL1        0.1049
@<TRIPOS>BOND
     1    23    24    1
     2    24    10    1
     3    10    11   ar
     4    11    12   ar
     5    12    13   ar
     6    13    14   ar
     7    14    15   ar
     8    14    16    1
     9    16    17    1
    10    17    18    1
    11    18     1    1
    12     1     2    2
    13     2     3    1
    14     3     4    2
    15     4     5    1
    16     5    25    1
    17    25    26    2
    18    26    27    1
    19    27    28   ar
    20    28    29   ar
    21    29    30   ar
    22    30    33    1
    23    33    34    1
    24    34    35    1
    25    35    36    1
    26    36    37    1
    27    37    38    1
    28    38    39    1
    29    30    31   ar
    30    31    32   ar
    31     5     6    2
    32     6     7    1
    33     7     8    2
    34     8     9    1
    35    16    19    1
    36    19    20    2
    37    19    21   am
    38    15    10   ar
    39    18    16    1
    40     9     1    1
    41    21    13    1
    42     8     4    1
    43    32    27   ar
    44    39    34    1
    45    21    22    1
@<TRIPOS>MOLECULE
*****
 39 45 0 0 0
SMALL
GASTEIGER

@<TRIPOS>ATOM
      1 C          60.6352   92.1876    3.3293 C.2     1  UNL1       -0.0378
      2 C          61.6087   91.3473    4.1015 C.2     1  UNL1       -0.0080
      3 C          61.1254   90.4866    5.2310 C.2     1  UNL1        0.0022
      4 C          59.6687   90.4661    5.5881 C.2     1  UNL1        0.0350
      5 C          58.9043   89.7225    6.6430 C.2     1  UNL1        0.1040
      6 N          57.4584   90.1032    6.5227 N.2     1  UNL1       -0.1483
      7 N          57.3292   91.0820    5.3935 N.2     1  UNL1       -0.1520
      8 C          58.6952   91.3063    4.8159 C.2     1  UNL1        0.0860
      9 C          59.1785   92.1670    3.6865 C.3     1  UNL1        0.0697
     10 C          63.1832   96.0478   -1.7124 C.ar    1  UNL1        0.1385
     11 C          64.6716   95.9859   -1.5369 C.ar    1  UNL1        0.0382
     12 C          65.2619   95.1814   -0.4169 C.ar    1  UNL1        0.0175
     13 C          64.3638   94.4389    0.5276 C.ar    1  UNL1        0.0469
     14 C          62.8754   94.5009    0.3521 C.ar    1  UNL1        0.0022
     15 C          62.2850   95.3053   -0.7679 C.ar    1  UNL1        0.0343
     16 C          62.2464   93.6706    1.4315 C.3     1  UNL1        0.0928
     17 C          60.8275   93.9169    1.0121 C.3     1  UNL1        0.0179
     18 C          61.1185   93.0483    2.1999 C.3     1  UNL1        0.0315
     19 C          63.3462   93.0955    2.2741 C.2     1  UNL1        0.2293
     20 O          63.1685   92.2023    3.4660 O.2     1  UNL1       -0.2744
     21 N          64.6548   93.5703    1.7154 N.am    1  UNL1       -0.2839
     22 H          65.5478   93.3505    2.0667 H       1  UNL1        0.1549
     23 C          62.0531   96.1607   -4.0491 C.3     1  UNL1        0.2525
     24 O          62.5928   96.8523   -2.8324 O.3     1  UNL1       -0.4714
     25 C          59.4840   88.7662    7.6427 C.2     1  UNL1        0.0209
     26 C          60.6149   89.2002    8.5274 C.2     1  UNL1        0.0016
     27 C          61.1947   88.2439    9.5272 C.ar    1  UNL1        0.0000
     28 C          62.1052   88.7487   10.6071 C.ar    1  UNL1       -0.0003
     29 C          62.6850   87.7925   11.6069 C.ar    1  UNL1       -0.0029
     30 C          62.3543   86.3316   11.5266 C.ar    1  UNL1       -0.0061
     31 C          61.4438   85.8269   10.4467 C.ar    1  UNL1       -0.0029
     32 C          60.8640   86.7831    9.4469 C.ar    1  UNL1       -0.0003
     33 C          62.9341   85.3754   12.5264 C.3     1  UNL1        0.0993
     34 N          62.9322   83.9023   12.2440 N.3     1  UNL1       -0.2646
     35 C          63.5587   83.3791   10.9854 C.3     1  UNL1        0.1049
     36 C          63.5568   81.9059   10.7029 C.3     1  UNL1        0.1595
     37 O          62.9283   80.9560   11.6790 O.3     1  UNL1       -0.3508
     38 C          62.3018   81.4792   12.9374 C.3     1  UNL1        0.1595
     39 C          62.3038   82.9523   13.2199 C.3     1  UNL1        0.1049
@<TRIPOS>BOND
     1    23    24    1
     2    24    10    1
     3    10    11   ar
     4    11    12   ar
     5    12    13   ar
     6    13    14   ar
     7    14    15   ar
     8    14    16    1
     9    16    17    1
    10    17    18    1
    11    18     1    1
    12     1     2    2
    13     2     3    1
    14     3     4    2
    15     4     5    1
    16     5    25    1
    17    25    26    2
    18    26    27    1
    19    27    28   ar
    20    28    29   ar
    21    29    30   ar
    22    30    33    1
    23    33    34    1
    24    34    35    1
    25    35    36    1
    26    36    37    1
    27    37    38    1
    28    38    39    1
    29    30    31   ar
    30    31    32   ar
    31     5     6    2
    32     6     7    1
    33     7     8    2
    34     8     9    1
    35    16    19    1
    36    19    20    2
    37    19    21   am
    38    15    10   ar
    39    18    16    1
    40     9     1    1
    41    21    13    1
    42     8     4    1
    43    32    27   ar
    44    39    34    1
    45    21    22    1
