@<TRIPOS>MOLECULE
*****
 27 31 0 0 0
SMALL
GASTEIGER

@<TRIPOS>ATOM
      1 O          58.2538   86.8274    7.8395 O.3     1  UNL1       -0.3601
      2 C          59.6358   86.2472    7.7848 C.3     1  UNL1        0.2320
      3 O          60.2191   85.4643    6.6459 O.3     1  UNL1       -0.3306
      4 C          61.6211   85.0813    7.0167 C.3     1  UNL1        0.1452
      5 C          61.9045   85.6274    8.3847 C.3     1  UNL1        0.0393
      6 C          60.6776   86.3480    8.8594 C.3     1  UNL1        0.0634
      7 H          57.7830   86.6195    7.0172 H       1  UNL1        0.2129
      8 C          63.1893   85.4790    9.1445 C.3     1  UNL1        0.0291
      9 C          63.2976   84.4641   10.2438 C.ar    1  UNL1       -0.0189
     10 C          63.9865   83.1559    9.9915 C.ar    1  UNL1       -0.0009
     11 C          64.0948   82.1410   11.0907 C.ar    1  UNL1        0.0399
     12 C          63.5142   82.4344   12.4423 C.ar    1  UNL1        0.1764
     13 C          62.8252   83.7427   12.6946 C.ar    1  UNL1        0.1761
     14 C          62.7168   84.7576   11.5954 C.ar    1  UNL1        0.0359
     15 O          62.3529   83.7509   14.1183 O.3     1  UNL1       -0.4346
     16 C          62.7500   82.4477   14.7458 C.3     1  UNL1        0.4294
     17 O          63.4677   81.6340   13.7100 O.3     1  UNL1       -0.4346
     18 C          60.5200   87.0467   10.1774 C.3     1  UNL1        0.0316
     19 C          61.3792   88.2317   10.5055 C.ar    1  UNL1       -0.0188
     20 C          61.4211   89.4081    9.5758 C.ar    1  UNL1       -0.0009
     21 C          62.2803   90.5931    9.9038 C.ar    1  UNL1        0.0399
     22 C          63.0975   90.6017   11.1616 C.ar    1  UNL1        0.1764
     23 C          63.0556   89.4253   12.0913 C.ar    1  UNL1        0.1761
     24 C          62.1964   88.2403   11.7632 C.ar    1  UNL1        0.0359
     25 O          63.9631   89.7172   13.2494 O.3     1  UNL1       -0.4346
     26 C          64.5660   91.0739   13.0354 C.3     1  UNL1        0.4294
     27 O          64.0310   91.6206   11.7451 O.3     1  UNL1       -0.4346
@<TRIPOS>BOND
     1     2     1    1
     2     2     3    1
     3     3     4    1
     4     4     5    1
     5     5     8    1
     6     8     9    1
     7     9    10   ar
     8    10    11   ar
     9    11    12   ar
    10    12    13   ar
    11    13    14   ar
    12    13    15    1
    13    15    16    1
    14    16    17    1
    15     5     6    1
    16     6    18    1
    17    18    19    1
    18    19    20   ar
    19    20    21   ar
    20    21    22   ar
    21    22    23   ar
    22    23    24   ar
    23    23    25    1
    24    25    26    1
    25    26    27    1
    26     6     2    1
    27    24    19   ar
    28    14     9   ar
    29    27    22    1
    30    17    12    1
    31     1     7    1
@<TRIPOS>MOLECULE
*****
 27 31 0 0 0
SMALL
GASTEIGER

@<TRIPOS>ATOM
      1 O          62.2323   89.6989   16.0806 O.3     1  UNL1       -0.3601
      2 C          63.4471   90.5436   15.8349 C.3     1  UNL1        0.2320
      3 O          63.8599   91.7470   16.6297 O.3     1  UNL1       -0.3306
      4 C          65.1304   92.2805   16.0371 C.3     1  UNL1        0.1452
      5 C          65.5030   91.4069   14.8761 C.3     1  UNL1        0.0393
      6 C          64.4627   90.3335   14.7510 C.3     1  UNL1        0.0634
      7 H          61.7433   90.0494   16.8415 H       1  UNL1        0.2129
      8 C          66.7048   91.5769   13.9948 C.3     1  UNL1        0.0291
      9 C          66.6646   92.5456   12.8502 C.ar    1  UNL1       -0.0189
     10 C          66.9776   92.0775   11.4600 C.ar    1  UNL1       -0.0009
     11 C          66.9374   93.0462   10.3155 C.ar    1  UNL1        0.0399
     12 C          66.5841   94.4831   10.5612 C.ar    1  UNL1        0.1764
     13 C          66.2710   94.9514   11.9515 C.ar    1  UNL1        0.1761
     14 C          66.3112   93.9826   13.0960 C.ar    1  UNL1        0.0359
     15 O          65.9581   96.4170   11.8876 O.3     1  UNL1       -0.4346
     16 C          66.0779   96.8546   10.4579 C.3     1  UNL1        0.4294
     17 O          66.4647   95.6594    9.6381 O.3     1  UNL1       -0.4346
     18 C          64.4416   89.2416   13.7227 C.3     1  UNL1        0.0316
     19 C          63.5393   89.3524   12.5295 C.ar    1  UNL1       -0.0188
     20 C          63.3770   90.6703   11.8318 C.ar    1  UNL1       -0.0009
     21 C          62.4748   90.7812   10.6387 C.ar    1  UNL1        0.0399
     22 C          61.7348   89.5741   10.1432 C.ar    1  UNL1        0.1764
     23 C          61.8972   88.2562   10.8409 C.ar    1  UNL1        0.1761
     24 C          62.7994   88.1454   12.0341 C.ar    1  UNL1        0.0359
     25 O          61.0456   87.2471   10.1293 O.3     1  UNL1       -0.4346
     26 C          60.3570   87.9412    8.9918 C.3     1  UNL1        0.4294
     27 O          60.7830   89.3794    9.0004 O.3     1  UNL1       -0.4346
@<TRIPOS>BOND
     1     2     1    1
     2     2     3    1
     3     3     4    1
     4     4     5    1
     5     5     8    1
     6     8     9    1
     7     9    10   ar
     8    10    11   ar
     9    11    12   ar
    10    12    13   ar
    11    13    14   ar
    12    13    15    1
    13    15    16    1
    14    16    17    1
    15     5     6    1
    16     6    18    1
    17    18    19    1
    18    19    20   ar
    19    20    21   ar
    20    21    22   ar
    21    22    23   ar
    22    23    24   ar
    23    23    25    1
    24    25    26    1
    25    26    27    1
    26     6     2    1
    27    24    19   ar
    28    14     9   ar
    29    27    22    1
    30    17    12    1
    31     1     7    1
@<TRIPOS>MOLECULE
*****
 27 31 0 0 0
SMALL
GASTEIGER

@<TRIPOS>ATOM
      1 O          61.8075   81.1354   12.6053 O.3     1  UNL1       -0.3601
      2 C          62.4337   82.1174   13.5505 C.3     1  UNL1        0.2320
      3 O          62.2108   82.1799   15.0325 O.3     1  UNL1       -0.3306
      4 C          63.0321   83.3105   15.5776 C.3     1  UNL1        0.1452
      5 C          63.7626   83.9469   14.4324 C.3     1  UNL1        0.0393
      6 C          63.3928   83.2095   13.1796 C.3     1  UNL1        0.0634
      7 H          61.2272   80.5358   13.0998 H       1  UNL1        0.2129
      8 C          64.6987   85.1154   14.5240 C.3     1  UNL1        0.0291
      9 C          64.2456   86.3903   15.1719 C.ar    1  UNL1       -0.0189
     10 C          63.4758   86.3454   16.4584 C.ar    1  UNL1       -0.0009
     11 C          63.0228   87.6202   17.1063 C.ar    1  UNL1        0.0399
     12 C          63.3396   88.9399   16.4675 C.ar    1  UNL1        0.1764
     13 C          64.1094   88.9848   15.1809 C.ar    1  UNL1        0.1761
     14 C          64.5625   87.7100   14.5330 C.ar    1  UNL1        0.0359
     15 O          64.2726   90.4232   14.7882 O.3     1  UNL1       -0.4346
     16 C          63.6035   91.2674   15.8321 C.3     1  UNL1        0.4294
     17 O          63.0269   90.3506   16.8700 O.3     1  UNL1       -0.4346
     18 C          63.8941   83.5113   11.7984 C.3     1  UNL1        0.0316
     19 C          63.1515   84.4796   10.9260 C.ar    1  UNL1       -0.0188
     20 C          63.4035   84.5025    9.4474 C.ar    1  UNL1       -0.0009
     21 C          62.6610   85.4707    8.5750 C.ar    1  UNL1        0.0399
     22 C          61.6665   86.4160    9.1810 C.ar    1  UNL1        0.1764
     23 C          61.4145   86.3931   10.6595 C.ar    1  UNL1        0.1761
     24 C          62.1570   85.4249   11.5320 C.ar    1  UNL1        0.0359
     25 O          60.3828   87.4367   10.9701 O.3     1  UNL1       -0.4346
     26 C          59.9972   88.1046    9.6836 C.3     1  UNL1        0.4294
     27 O          60.7906   87.4738    8.5779 O.3     1  UNL1       -0.4346
@<TRIPOS>BOND
     1     2     1    1
     2     2     3    1
     3     3     4    1
     4     4     5    1
     5     5     8    1
     6     8     9    1
     7     9    10   ar
     8    10    11   ar
     9    11    12   ar
    10    12    13   ar
    11    13    14   ar
    12    13    15    1
    13    15    16    1
    14    16    17    1
    15     5     6    1
    16     6    18    1
    17    18    19    1
    18    19    20   ar
    19    20    21   ar
    20    21    22   ar
    21    22    23   ar
    22    23    24   ar
    23    23    25    1
    24    25    26    1
    25    26    27    1
    26     6     2    1
    27    24    19   ar
    28    14     9   ar
    29    27    22    1
    30    17    12    1
    31     1     7    1
@<TRIPOS>MOLECULE
*****
 27 31 0 0 0
SMALL
GASTEIGER

@<TRIPOS>ATOM
      1 O          59.8083   90.8516   10.4140 O.3     1  UNL1       -0.3601
      2 C          60.1089   89.4426    9.9966 C.3     1  UNL1        0.2320
      3 O          59.0991   88.3600    9.7554 O.3     1  UNL1       -0.3306
      4 C          59.8382   87.1170    9.3569 C.3     1  UNL1        0.1452
      5 C          61.3049   87.4315    9.3517 C.3     1  UNL1        0.0393
      6 C          61.4722   88.8687    9.7471 C.3     1  UNL1        0.0634
      7 H          58.8493   90.9636   10.5071 H       1  UNL1        0.2129
      8 C          62.4101   86.4763    9.0110 C.3     1  UNL1        0.0291
      9 C          62.7795   85.3838    9.9702 C.ar    1  UNL1       -0.0189
     10 C          63.5394   84.1850    9.4850 C.ar    1  UNL1       -0.0009
     11 C          63.9088   83.0925   10.4441 C.ar    1  UNL1        0.0399
     12 C          63.5183   83.1988   11.8885 C.ar    1  UNL1        0.1764
     13 C          62.7584   84.3976   12.3737 C.ar    1  UNL1        0.1761
     14 C          62.3890   85.4901   11.4146 C.ar    1  UNL1        0.0359
     15 O          62.5119   84.2265   13.8434 O.3     1  UNL1       -0.4346
     16 C          63.1195   82.9220   14.2665 C.3     1  UNL1        0.4294
     17 O          63.7415   82.2868   13.0583 O.3     1  UNL1       -0.4346
     18 C          62.7742   89.6032    9.8712 C.3     1  UNL1        0.0316
     19 C          63.2075   90.1419   11.2024 C.ar    1  UNL1       -0.0188
     20 C          64.1381   91.3164   11.2693 C.ar    1  UNL1       -0.0009
     21 C          64.5714   91.8552   12.6004 C.ar    1  UNL1        0.0399
     22 C          64.0742   91.2193   13.8647 C.ar    1  UNL1        0.1764
     23 C          63.1436   90.0448   13.7978 C.ar    1  UNL1        0.1761
     24 C          62.7103   89.5061   12.4667 C.ar    1  UNL1        0.0359
     25 O          62.8209   89.6285   15.2023 O.3     1  UNL1       -0.4346
     26 C          63.5520   90.5458   16.1372 C.3     1  UNL1        0.4294
     27 O          64.3266   91.5289   15.3105 O.3     1  UNL1       -0.4346
@<TRIPOS>BOND
     1     2     1    1
     2     2     3    1
     3     3     4    1
     4     4     5    1
     5     5     8    1
     6     8     9    1
     7     9    10   ar
     8    10    11   ar
     9    11    12   ar
    10    12    13   ar
    11    13    14   ar
    12    13    15    1
    13    15    16    1
    14    16    17    1
    15     5     6    1
    16     6    18    1
    17    18    19    1
    18    19    20   ar
    19    20    21   ar
    20    21    22   ar
    21    22    23   ar
    22    23    24   ar
    23    23    25    1
    24    25    26    1
    25    26    27    1
    26     6     2    1
    27    24    19   ar
    28    14     9   ar
    29    27    22    1
    30    17    12    1
    31     1     7    1
@<TRIPOS>MOLECULE
*****
 27 31 0 0 0
SMALL
GASTEIGER

@<TRIPOS>ATOM
      1 O          63.5980   80.4780   14.5104 O.3     1  UNL1       -0.3601
      2 C          63.4945   80.9532   13.0916 C.3     1  UNL1        0.2320
      3 O          62.7960   80.2404   11.9717 O.3     1  UNL1       -0.3306
      4 C          62.9411   81.0713   10.7313 C.3     1  UNL1        0.1452
      5 C          63.7293   82.2977   11.0846 C.3     1  UNL1        0.0393
      6 C          64.0714   82.2247   12.5432 C.3     1  UNL1        0.0634
      7 H          63.1398   79.6279   14.6009 H       1  UNL1        0.2129
      8 C          64.1089   83.4030   10.1442 C.3     1  UNL1        0.0291
      9 C          63.1577   84.5361    9.8958 C.ar    1  UNL1       -0.0189
     10 C          62.8720   84.9814    8.4923 C.ar    1  UNL1       -0.0009
     11 C          61.9210   86.1144    8.2438 C.ar    1  UNL1        0.0399
     12 C          61.2556   86.8021    9.3990 C.ar    1  UNL1        0.1764
     13 C          61.5413   86.3568   10.8026 C.ar    1  UNL1        0.1761
     14 C          62.4924   85.2238   11.0510 C.ar    1  UNL1        0.0359
     15 O          60.7421   87.2189   11.7342 O.3     1  UNL1       -0.4346
     16 C          59.9624   88.1970   10.9064 C.3     1  UNL1        0.4294
     17 O          60.2798   87.9395    9.4631 O.3     1  UNL1       -0.4346
     18 C          64.8530   83.2442   13.3176 C.3     1  UNL1        0.0316
     19 C          64.1559   84.1311   14.3064 C.ar    1  UNL1       -0.0188
     20 C          63.0891   83.5675   15.1976 C.ar    1  UNL1       -0.0009
     21 C          62.3920   84.4544   16.1863 C.ar    1  UNL1        0.0399
     22 C          62.7617   85.9048   16.2837 C.ar    1  UNL1        0.1764
     23 C          63.8284   86.4684   15.3924 C.ar    1  UNL1        0.1761
     24 C          64.5255   85.5816   14.4037 C.ar    1  UNL1        0.0359
     25 O          63.9783   87.9260   15.7134 O.3     1  UNL1       -0.4346
     26 C          63.0041   88.2633   16.8030 C.3     1  UNL1        0.4294
     27 O          62.2523   87.0141   17.1555 O.3     1  UNL1       -0.4346
@<TRIPOS>BOND
     1     2     1    1
     2     2     3    1
     3     3     4    1
     4     4     5    1
     5     5     8    1
     6     8     9    1
     7     9    10   ar
     8    10    11   ar
     9    11    12   ar
    10    12    13   ar
    11    13    14   ar
    12    13    15    1
    13    15    16    1
    14    16    17    1
    15     5     6    1
    16     6    18    1
    17    18    19    1
    18    19    20   ar
    19    20    21   ar
    20    21    22   ar
    21    22    23   ar
    22    23    24   ar
    23    23    25    1
    24    25    26    1
    25    26    27    1
    26     6     2    1
    27    24    19   ar
    28    14     9   ar
    29    27    22    1
    30    17    12    1
    31     1     7    1
@<TRIPOS>MOLECULE
*****
 27 31 0 0 0
SMALL
GASTEIGER

@<TRIPOS>ATOM
      1 O          63.0921   83.0043   16.4418 O.3     1  UNL1       -0.3601
      2 C          62.9149   82.8418   14.9613 C.3     1  UNL1        0.2320
      3 O          62.0035   81.8612   14.2847 O.3     1  UNL1       -0.3306
      4 C          62.1433   82.0447   12.8026 C.3     1  UNL1        0.1452
      5 C          63.1410   83.1389   12.5631 C.3     1  UNL1        0.0393
      6 C          63.6179   83.6315   13.8972 C.3     1  UNL1        0.0634
      7 H          62.5220   82.3723   16.9070 H       1  UNL1        0.2129
      8 C          63.5841   83.6505   11.2244 C.3     1  UNL1        0.0291
      9 C          62.8857   84.8225   10.6008 C.ar    1  UNL1       -0.0189
     10 C          62.9948   85.0616    9.1241 C.ar    1  UNL1       -0.0009
     11 C          62.2965   86.2335    8.5004 C.ar    1  UNL1        0.0399
     12 C          61.4890   87.1663    9.3536 C.ar    1  UNL1        0.1764
     13 C          61.3798   86.9271   10.8304 C.ar    1  UNL1        0.1761
     14 C          62.0781   85.7552   11.4540 C.ar    1  UNL1        0.0359
     15 O          60.5192   88.0088   11.4128 O.3     1  UNL1       -0.4346
     16 C          60.0965   88.9165   10.2959 C.3     1  UNL1        0.4294
     17 O          60.6958   88.3958    9.0233 O.3     1  UNL1       -0.4346
     18 C          64.6216   84.7223   14.1269 C.3     1  UNL1        0.0316
     19 C          64.2152   85.9772   14.8412 C.ar    1  UNL1       -0.0188
     20 C          63.5435   85.8942   16.1798 C.ar    1  UNL1       -0.0009
     21 C          63.1370   87.1490   16.8941 C.ar    1  UNL1        0.0399
     22 C          63.4023   88.4868   16.2697 C.ar    1  UNL1        0.1764
     23 C          64.0740   88.5698   14.9311 C.ar    1  UNL1        0.1761
     24 C          64.4804   87.3150   14.2168 C.ar    1  UNL1        0.0359
     25 O          64.2040   90.0191   14.5668 O.3     1  UNL1       -0.4346
     26 C          63.6127   90.8318   15.6803 C.3     1  UNL1        0.4294
     27 O          63.1172   89.8848   16.7327 O.3     1  UNL1       -0.4346
@<TRIPOS>BOND
     1     2     1    1
     2     2     3    1
     3     3     4    1
     4     4     5    1
     5     5     8    1
     6     8     9    1
     7     9    10   ar
     8    10    11   ar
     9    11    12   ar
    10    12    13   ar
    11    13    14   ar
    12    13    15    1
    13    15    16    1
    14    16    17    1
    15     5     6    1
    16     6    18    1
    17    18    19    1
    18    19    20   ar
    19    20    21   ar
    20    21    22   ar
    21    22    23   ar
    22    23    24   ar
    23    23    25    1
    24    25    26    1
    25    26    27    1
    26     6     2    1
    27    24    19   ar
    28    14     9   ar
    29    27    22    1
    30    17    12    1
    31     1     7    1
@<TRIPOS>MOLECULE
*****
 27 31 0 0 0
SMALL
GASTEIGER

@<TRIPOS>ATOM
      1 O          58.5541   87.0697    7.8248 O.3     1  UNL1       -0.3601
      2 C          59.8618   86.3440    7.9384 C.3     1  UNL1        0.2320
      3 O          60.4722   85.4579    6.8932 O.3     1  UNL1       -0.3306
      4 C          61.7765   84.9431    7.4259 C.3     1  UNL1        0.1452
      5 C          61.9722   85.5110    8.8004 C.3     1  UNL1        0.0393
      6 C          60.7889   86.3767    9.1172 C.3     1  UNL1        0.0634
      7 H          58.1528   86.8799    6.9623 H       1  UNL1        0.2129
      8 C          63.1453   85.2576    9.7002 C.3     1  UNL1        0.0291
      9 C          62.9888   84.3815   10.9079 C.ar    1  UNL1       -0.0189
     10 C          62.8333   84.9979   12.2664 C.ar    1  UNL1       -0.0009
     11 C          62.6769   84.1219   13.4740 C.ar    1  UNL1        0.0399
     12 C          62.6759   82.6296   13.3229 C.ar    1  UNL1        0.1764
     13 C          62.8314   82.0132   11.9643 C.ar    1  UNL1        0.1761
     14 C          62.9879   82.8891   10.7567 C.ar    1  UNL1        0.0359
     15 O          62.7930   80.5222   12.1245 O.3     1  UNL1       -0.4346
     16 C          62.6138   80.2172   13.5821 C.3     1  UNL1        0.4294
     17 O          62.5414   81.5196   14.3228 O.3     1  UNL1       -0.4346
     18 C          60.5709   87.1410   10.3893 C.3     1  UNL1        0.0316
     19 C          61.5625   88.1817   10.8183 C.ar    1  UNL1       -0.0188
     20 C          62.3078   88.0202   12.1100 C.ar    1  UNL1       -0.0009
     21 C          63.2993   89.0608   12.5390 C.ar    1  UNL1        0.0399
     22 C          63.5454   90.2629   11.6763 C.ar    1  UNL1        0.1764
     23 C          62.8001   90.4244   10.3846 C.ar    1  UNL1        0.1761
     24 C          61.8086   89.3838    9.9556 C.ar    1  UNL1        0.0359
     25 O          63.2494   91.7058    9.7473 O.3     1  UNL1       -0.4346
     26 C          64.2724   92.3363   10.6451 C.3     1  UNL1        0.4294
     27 O          64.4553   91.4445   11.8373 O.3     1  UNL1       -0.4346
@<TRIPOS>BOND
     1     2     1    1
     2     2     3    1
     3     3     4    1
     4     4     5    1
     5     5     8    1
     6     8     9    1
     7     9    10   ar
     8    10    11   ar
     9    11    12   ar
    10    12    13   ar
    11    13    14   ar
    12    13    15    1
    13    15    16    1
    14    16    17    1
    15     5     6    1
    16     6    18    1
    17    18    19    1
    18    19    20   ar
    19    20    21   ar
    20    21    22   ar
    21    22    23   ar
    22    23    24   ar
    23    23    25    1
    24    25    26    1
    25    26    27    1
    26     6     2    1
    27    24    19   ar
    28    14     9   ar
    29    27    22    1
    30    17    12    1
    31     1     7    1
@<TRIPOS>MOLECULE
*****
 27 31 0 0 0
SMALL
GASTEIGER

@<TRIPOS>ATOM
      1 O          62.7804   83.0001   16.1438 O.3     1  UNL1       -0.3601
      2 C          62.7652   82.8806   14.6488 C.3     1  UNL1        0.2320
      3 O          61.9039   81.9500   13.8473 O.3     1  UNL1       -0.3306
      4 C          62.2150   82.1650   12.3957 C.3     1  UNL1        0.1452
      5 C          63.2685   83.2285   12.3000 C.3     1  UNL1        0.0393
      6 C          63.6086   83.6708   13.6924 C.3     1  UNL1        0.0634
      7 H          62.1414   82.3775   16.5245 H       1  UNL1        0.2129
      8 C          63.8754   83.7569   11.0341 C.3     1  UNL1        0.0291
      9 C          63.0294   84.5203   10.0585 C.ar    1  UNL1       -0.0189
     10 C          63.3198   84.4381    8.5893 C.ar    1  UNL1       -0.0009
     11 C          62.4739   85.2014    7.6137 C.ar    1  UNL1        0.0399
     12 C          61.3376   86.0470    8.1075 C.ar    1  UNL1        0.1764
     13 C          61.0472   86.1293    9.5768 C.ar    1  UNL1        0.1761
     14 C          61.8931   85.3659   10.5523 C.ar    1  UNL1        0.0359
     15 O          59.8691   87.0381    9.7663 O.3     1  UNL1       -0.4346
     16 C          59.4313   87.5176    8.4141 C.3     1  UNL1        0.4294
     17 O          60.3389   86.9051    7.3889 O.3     1  UNL1       -0.4346
     18 C          64.6152   84.7191   14.0634 C.3     1  UNL1        0.0316
     19 C          64.2709   86.1724   13.9232 C.ar    1  UNL1       -0.0188
     20 C          64.6483   87.1403   15.0053 C.ar    1  UNL1       -0.0009
     21 C          64.3041   88.5935   14.8652 C.ar    1  UNL1        0.0399
     22 C          63.5825   89.0788   13.6430 C.ar    1  UNL1        0.1764
     23 C          63.2051   88.1109   12.5610 C.ar    1  UNL1        0.1761
     24 C          63.5493   86.6577   12.7011 C.ar    1  UNL1        0.0359
     25 O          62.5032   88.8763   11.4786 O.3     1  UNL1       -0.4346
     26 C          62.4468   90.3172   11.8917 C.3     1  UNL1        0.4294
     27 O          63.1139   90.4423   13.2294 O.3     1  UNL1       -0.4346
@<TRIPOS>BOND
     1     2     1    1
     2     2     3    1
     3     3     4    1
     4     4     5    1
     5     5     8    1
     6     8     9    1
     7     9    10   ar
     8    10    11   ar
     9    11    12   ar
    10    12    13   ar
    11    13    14   ar
    12    13    15    1
    13    15    16    1
    14    16    17    1
    15     5     6    1
    16     6    18    1
    17    18    19    1
    18    19    20   ar
    19    20    21   ar
    20    21    22   ar
    21    22    23   ar
    22    23    24   ar
    23    23    25    1
    24    25    26    1
    25    26    27    1
    26     6     2    1
    27    24    19   ar
    28    14     9   ar
    29    27    22    1
    30    17    12    1
    31     1     7    1
@<TRIPOS>MOLECULE
*****
 27 31 0 0 0
SMALL
GASTEIGER

@<TRIPOS>ATOM
      1 O          63.6537   81.9145   15.2267 O.3     1  UNL1       -0.3601
      2 C          63.2984   82.1734   13.7927 C.3     1  UNL1        0.2320
      3 O          62.3631   81.3536   12.9541 O.3     1  UNL1       -0.3306
      4 C          62.3027   81.9712   11.5885 C.3     1  UNL1        0.1452
      5 C          63.2005   83.1728   11.5831 C.3     1  UNL1        0.0393
      6 C          63.8159   83.2978   12.9453 C.3     1  UNL1        0.0634
      7 H          63.1829   81.1260   15.5392 H       1  UNL1        0.2129
      8 C          63.4408   84.0886   10.4196 C.3     1  UNL1        0.0291
      9 C          62.5479   85.2741   10.2014 C.ar    1  UNL1       -0.0189
     10 C          62.3507   86.2767   11.2994 C.ar    1  UNL1       -0.0009
     11 C          61.4579   87.4621   11.0812 C.ar    1  UNL1        0.0399
     12 C          60.7622   87.6449    9.7649 C.ar    1  UNL1        0.1764
     13 C          60.9593   86.6422    8.6668 C.ar    1  UNL1        0.1761
     14 C          61.8522   85.4568    8.8850 C.ar    1  UNL1        0.0359
     15 O          60.1480   87.0835    7.4849 O.3     1  UNL1       -0.4346
     16 C          59.4495   88.3590    7.8525 C.3     1  UNL1        0.4294
     17 O          59.8290   88.7060    9.2616 O.3     1  UNL1       -0.4346
     18 C          64.7796   84.3606   13.3833 C.3     1  UNL1        0.0316
     19 C          64.3512   85.3970   14.3795 C.ar    1  UNL1       -0.0188
     20 C          64.5095   86.8542   14.0608 C.ar    1  UNL1       -0.0009
     21 C          64.0812   87.8906   15.0569 C.ar    1  UNL1        0.0399
     22 C          63.4945   87.4699   16.3717 C.ar    1  UNL1        0.1764
     23 C          63.3363   86.0127   16.6904 C.ar    1  UNL1        0.1761
     24 C          63.7646   84.9763   15.6943 C.ar    1  UNL1        0.0359
     25 O          62.7300   85.9005   18.0578 O.3     1  UNL1       -0.4346
     26 C          62.5136   87.2883   18.5843 C.3     1  UNL1        0.4294
     27 O          62.9861   88.2582   17.5422 O.3     1  UNL1       -0.4346
@<TRIPOS>BOND
     1     2     1    1
     2     2     3    1
     3     3     4    1
     4     4     5    1
     5     5     8    1
     6     8     9    1
     7     9    10   ar
     8    10    11   ar
     9    11    12   ar
    10    12    13   ar
    11    13    14   ar
    12    13    15    1
    13    15    16    1
    14    16    17    1
    15     5     6    1
    16     6    18    1
    17    18    19    1
    18    19    20   ar
    19    20    21   ar
    20    21    22   ar
    21    22    23   ar
    22    23    24   ar
    23    23    25    1
    24    25    26    1
    25    26    27    1
    26     6     2    1
    27    24    19   ar
    28    14     9   ar
    29    27    22    1
    30    17    12    1
    31     1     7    1
