@<TRIPOS>MOLECULE
*****
 42 45 0 0 0
SMALL
GASTEIGER

@<TRIPOS>ATOM
      1 C          71.0694   72.2339   13.8094 C.2     1  UNL1        0.2252
      2 O          70.6798   70.9801   13.0840 O.2     1  UNL1       -0.2749
      3 N          71.3585   73.4875   13.0381 N.am    1  UNL1       -0.2774
      4 C          71.2995   73.6386   11.5469 C.3     1  UNL1        0.0956
      5 C          71.6619   75.0547   11.2097 C.3     1  UNL1        0.0497
      6 C          71.9450   75.7787   12.4927 C.3     1  UNL1        0.1533
      7 C          71.7574   74.8101   13.6226 C.3     1  UNL1        0.1198
      8 C          71.3710   72.2345   18.2993 C.3     1  UNL1        0.0366
      9 C          70.5309   73.2643   17.6039 C.3     1  UNL1        0.0060
     10 C          70.4303   73.2641   16.1072 C.3     1  UNL1        0.0094
     11 C          71.1700   72.2341   15.3060 C.3     1  UNL1        0.0767
     12 C          72.0101   71.2043   16.0014 C.3     1  UNL1        0.0094
     13 C          72.1107   71.2045   17.4980 C.3     1  UNL1        0.0060
     14 O          72.5443   73.0331   20.4754 O.co2   1  UNL1       -0.5492
     15 C          71.4716   72.2347   19.7959 C.2     1  UNL1        0.0500
     16 O          70.4994   71.4365   20.6130 O.co2   1  UNL1       -0.5492
     17 C          72.2029   76.9497   11.5915 C.ar    1  UNL1       -0.0005
     18 C          73.3718   76.9297   10.6517 C.ar    1  UNL1       -0.0029
     19 C          73.6298   78.1007    9.7506 C.ar    1  UNL1       -0.0015
     20 C          72.7188   79.2917    9.7891 C.ar    1  UNL1        0.0235
     21 C          71.5498   79.3118   10.7289 C.ar    1  UNL1       -0.0015
     22 C          71.2919   78.1408   11.6301 C.ar    1  UNL1       -0.0029
     23 C          72.9768   80.4628    8.8879 C.3     1  UNL1        0.3242
     24 F          73.1057   79.5335    7.7174 F       1  UNL1       -0.2176
     25 C          73.2348   81.6337    7.9866 C.3     1  UNL1        0.4363
     26 F          73.4928   82.8047    7.0854 F       1  UNL1       -0.1666
     27 F          72.6116   80.8905    6.8425 F       1  UNL1       -0.1666
     28 F          73.6187   82.1537    8.5924 F       1  UNL1       -0.1666
     29 C          72.8480   81.3919   10.0583 C.3     1  UNL1        0.4363
     30 F          72.7192   82.3210   11.2288 F       1  UNL1       -0.1666
     31 F          73.6243   81.1964   10.4373 F       1  UNL1       -0.1666
     32 F          71.5163   82.0511    9.8536 F       1  UNL1       -0.1666
     33 S          72.2819   76.7474   13.5871 S.O2    1  UNL1        0.0106
     34 O          73.6316   76.7512   13.6160 O.2     1  UNL1       -0.1684
     35 O          70.8203   76.9847   13.8270 O.2     1  UNL1       -0.1684
     36 C          72.6189   77.7162   14.6816 C.ar    1  UNL1        0.1061
     37 C          72.2813   79.1695   14.5270 C.ar    1  UNL1        0.0207
     38 C          72.6183   80.1383   15.6215 C.ar    1  UNL1        0.0310
     39 C          73.2928   79.6538   16.8706 C.ar    1  UNL1        0.1402
     40 F          73.6298   80.6226   17.9651 F       1  UNL1       -0.2042
     41 C          73.6304   78.2004   17.0252 C.ar    1  UNL1        0.0310
     42 C          73.2934   77.2317   15.9308 C.ar    1  UNL1        0.0207
@<TRIPOS>UNITY_ATOM_ATTR
14 1
charge -1
@<TRIPOS>BOND
     1    14    15   ar
     2    15    16   ar
     3     8    15    1
     4     8     9    1
     5     9    10    1
     6    10    11    1
     7    11     1    1
     8     1     2    2
     9     1     3   am
    10     3     4    1
    11     4     5    1
    12     5     6    1
    13     6    17    1
    14    17    18   ar
    15    18    19   ar
    16    19    20   ar
    17    20    23    1
    18    23    24    1
    19    23    25    1
    20    25    26    1
    21    25    27    1
    22    25    28    1
    23    23    29    1
    24    29    30    1
    25    29    31    1
    26    29    32    1
    27    20    21   ar
    28    21    22   ar
    29     6    33    1
    30    33    34    2
    31    33    35    2
    32    33    36    1
    33    36    37   ar
    34    37    38   ar
    35    38    39   ar
    36    39    40    1
    37    39    41   ar
    38    41    42   ar
    39     6     7    1
    40    11    12    1
    41    12    13    1
    42    13     8    1
    43     7     3    1
    44    22    17   ar
    45    42    36   ar
@<TRIPOS>MOLECULE
*****
 42 45 0 0 0
SMALL
GASTEIGER

@<TRIPOS>ATOM
      1 C          66.5362   92.4097   13.8577 C.2     1  UNL1        0.2252
      2 O          67.6271   92.7732   14.8208 O.2     1  UNL1       -0.2749
      3 N          65.8801   91.0634   13.9411 N.am    1  UNL1       -0.2774
      4 C          66.2070   89.9829   14.9288 C.3     1  UNL1        0.0956
      5 C          65.3107   88.8129   14.6495 C.3     1  UNL1        0.0497
      6 C          64.4298   89.1703   13.4892 C.3     1  UNL1        0.1533
      7 C          64.7817   90.5612   13.0513 C.3     1  UNL1        0.1198
      8 C          65.2319   95.3578   10.7180 C.3     1  UNL1        0.0366
      9 C          65.9440   95.8378   11.9478 C.3     1  UNL1        0.0060
     10 C          66.3787   94.8550   12.9944 C.3     1  UNL1        0.0094
     11 C          66.1014   93.3924   12.8111 C.3     1  UNL1        0.0767
     12 C          65.3893   92.9124   11.5813 C.3     1  UNL1        0.0094
     13 C          64.9546   93.8951   10.5347 C.3     1  UNL1        0.0060
     14 O          63.3885   96.8559    9.6657 O.co2   1  UNL1       -0.5492
     15 C          64.7971   96.3405    9.6715 C.2     1  UNL1        0.0500
     16 O          65.7710   96.8078    8.6307 O.co2   1  UNL1       -0.5492
     17 C          63.8694   87.7941   13.6934 C.ar    1  UNL1       -0.0005
     18 C          64.0624   87.0928   15.0052 C.ar    1  UNL1       -0.0029
     19 C          63.5019   85.7165   15.2095 C.ar    1  UNL1       -0.0015
     20 C          62.7485   85.0416   14.1020 C.ar    1  UNL1        0.0235
     21 C          62.5554   85.7428   12.7901 C.ar    1  UNL1       -0.0015
     22 C          63.1159   87.1191   12.5858 C.ar    1  UNL1       -0.0029
     23 C          62.1880   83.6652   14.3063 C.3     1  UNL1        0.3242
     24 F          61.3541   84.1738   15.4446 F       1  UNL1       -0.2176
     25 C          61.6275   82.2890   14.5106 C.3     1  UNL1        0.4363
     26 F          61.0671   80.9127   14.7149 F       1  UNL1       -0.1666
     27 F          62.9875   81.7936   14.9045 F       1  UNL1       -0.1666
     28 F          60.7901   82.4802   14.2944 F       1  UNL1       -0.1666
     29 C          63.0219   83.1567   13.1679 C.3     1  UNL1        0.4363
     30 F          63.8558   82.6481   12.0295 F       1  UNL1       -0.1666
     31 F          62.3512   82.9253   12.6377 F       1  UNL1       -0.1666
     32 F          64.4335   83.3561   13.6346 F       1  UNL1       -0.1666
     33 S          63.4319   89.2401   12.3716 S.O2    1  UNL1        0.0106
     34 O          64.1073   88.7713   11.3008 O.2     1  UNL1       -0.1684
     35 O          62.4096   89.7944   13.3190 O.2     1  UNL1       -0.1684
     36 C          62.4339   89.3099   11.2539 C.ar    1  UNL1        0.1061
     37 C          62.4961   88.3185   10.1299 C.ar    1  UNL1        0.0207
     38 C          61.4982   88.3883    9.0123 C.ar    1  UNL1        0.0310
     39 C          60.4380   89.4494    9.0185 C.ar    1  UNL1        0.1402
     40 F          59.4400   89.5191    7.9009 F       1  UNL1       -0.2042
     41 C          60.3757   90.4408   10.1425 C.ar    1  UNL1        0.0310
     42 C          61.3736   90.3710   11.2602 C.ar    1  UNL1        0.0207
@<TRIPOS>UNITY_ATOM_ATTR
14 1
charge -1
@<TRIPOS>BOND
     1    14    15   ar
     2    15    16   ar
     3     8    15    1
     4     8     9    1
     5     9    10    1
     6    10    11    1
     7    11     1    1
     8     1     2    2
     9     1     3   am
    10     3     4    1
    11     4     5    1
    12     5     6    1
    13     6    17    1
    14    17    18   ar
    15    18    19   ar
    16    19    20   ar
    17    20    23    1
    18    23    24    1
    19    23    25    1
    20    25    26    1
    21    25    27    1
    22    25    28    1
    23    23    29    1
    24    29    30    1
    25    29    31    1
    26    29    32    1
    27    20    21   ar
    28    21    22   ar
    29     6    33    1
    30    33    34    2
    31    33    35    2
    32    33    36    1
    33    36    37   ar
    34    37    38   ar
    35    38    39   ar
    36    39    40    1
    37    39    41   ar
    38    41    42   ar
    39     6     7    1
    40    11    12    1
    41    12    13    1
    42    13     8    1
    43     7     3    1
    44    22    17   ar
    45    42    36   ar
@<TRIPOS>MOLECULE
*****
 42 45 0 0 0
SMALL
GASTEIGER

@<TRIPOS>ATOM
      1 C          66.3977   93.7552   11.9388 C.2     1  UNL1        0.2252
      2 O          66.7111   95.0155   11.1882 O.2     1  UNL1       -0.2749
      3 N          65.3396   92.8222   11.4292 N.am    1  UNL1       -0.2774
      4 C          64.5161   93.0152   10.1904 C.3     1  UNL1        0.0956
      5 C          63.5866   91.8445   10.0645 C.3     1  UNL1        0.0497
      6 C          63.8358   90.9280   11.2255 C.3     1  UNL1        0.1533
      7 C          64.9191   91.5321   12.0689 C.3     1  UNL1        0.1198
      8 C          68.6321   92.7735   15.7195 C.3     1  UNL1        0.0366
      9 C          68.9190   92.0119   14.4595 C.3     1  UNL1        0.0060
     10 C          68.1742   92.3391   13.1993 C.3     1  UNL1        0.0094
     11 C          67.1425   93.4280   13.1990 C.3     1  UNL1        0.0767
     12 C          66.8557   94.1896   14.4590 C.3     1  UNL1        0.0094
     13 C          67.6005   93.8623   15.7192 C.3     1  UNL1        0.0060
     14 O          70.5563   93.2768   17.3911 O.co2   1  UNL1       -0.5492
     15 C          69.3769   92.4463   16.9797 C.2     1  UNL1        0.0500
     16 O          68.9423   91.2885   17.8286 O.co2   1  UNL1       -0.5492
     17 C          62.7574   90.0958   10.5973 C.ar    1  UNL1       -0.0005
     18 C          63.1211   88.9259    9.7319 C.ar    1  UNL1       -0.0029
     19 C          62.0427   88.0938    9.1037 C.ar    1  UNL1       -0.0015
     20 C          60.6007   88.4316    9.3409 C.ar    1  UNL1        0.0235
     21 C          60.2369   89.6015   10.2064 C.ar    1  UNL1       -0.0015
     22 C          61.3153   90.4336   10.8346 C.ar    1  UNL1       -0.0029
     23 C          59.5223   87.5994    8.7127 C.3     1  UNL1        0.3242
     24 F          58.8179   88.8472    8.2690 F       1  UNL1       -0.2176
     25 C          58.4439   86.7673    8.0844 C.3     1  UNL1        0.4363
     26 F          57.3655   85.9352    7.4562 F       1  UNL1       -0.1666
     27 F          58.9341   87.1603    6.7224 F       1  UNL1       -0.1666
     28 F          58.0790   86.4770    8.8375 F       1  UNL1       -0.1666
     29 C          60.2267   86.3517    9.1564 C.3     1  UNL1        0.4363
     30 F          60.9311   85.1039    9.6001 F       1  UNL1       -0.1666
     31 F          60.1734   86.5017   10.0277 F       1  UNL1       -0.1666
     32 F          60.5693   85.6527    7.8742 F       1  UNL1       -0.1666
     33 S          63.8595   89.8375   12.2551 S.O2    1  UNL1        0.0106
     34 O          63.1985   88.8180   11.6665 O.2     1  UNL1       -0.1684
     35 O          64.6222   90.7329   13.1860 O.2     1  UNL1       -0.1684
     36 C          63.8831   88.7470   13.2847 C.ar    1  UNL1        0.1061
     37 C          63.6954   87.3182   12.8684 C.ar    1  UNL1        0.0207
     38 C          63.7191   86.2276   13.8980 C.ar    1  UNL1        0.0310
     39 C          63.9304   86.5658   15.3440 C.ar    1  UNL1        0.1402
     40 F          63.9541   85.4753   16.3736 F       1  UNL1       -0.2042
     41 C          64.1181   87.9946   15.7605 C.ar    1  UNL1        0.0310
     42 C          64.0945   89.0851   14.7308 C.ar    1  UNL1        0.0207
@<TRIPOS>UNITY_ATOM_ATTR
14 1
charge -1
@<TRIPOS>BOND
     1    14    15   ar
     2    15    16   ar
     3     8    15    1
     4     8     9    1
     5     9    10    1
     6    10    11    1
     7    11     1    1
     8     1     2    2
     9     1     3   am
    10     3     4    1
    11     4     5    1
    12     5     6    1
    13     6    17    1
    14    17    18   ar
    15    18    19   ar
    16    19    20   ar
    17    20    23    1
    18    23    24    1
    19    23    25    1
    20    25    26    1
    21    25    27    1
    22    25    28    1
    23    23    29    1
    24    29    30    1
    25    29    31    1
    26    29    32    1
    27    20    21   ar
    28    21    22   ar
    29     6    33    1
    30    33    34    2
    31    33    35    2
    32    33    36    1
    33    36    37   ar
    34    37    38   ar
    35    38    39   ar
    36    39    40    1
    37    39    41   ar
    38    41    42   ar
    39     6     7    1
    40    11    12    1
    41    12    13    1
    42    13     8    1
    43     7     3    1
    44    22    17   ar
    45    42    36   ar
@<TRIPOS>MOLECULE
*****
 42 45 0 0 0
SMALL
GASTEIGER

@<TRIPOS>ATOM
      1 C          66.3455   93.6626   11.9082 C.2     1  UNL1        0.2252
      2 O          66.6545   94.9179   11.1476 O.2     1  UNL1       -0.2749
      3 N          65.2911   92.7216   11.4057 N.am    1  UNL1       -0.2774
      4 C          64.4674   92.9016   10.1650 C.3     1  UNL1        0.0956
      5 C          63.5424   91.7265   10.0482 C.3     1  UNL1        0.0497
      6 C          63.7944   90.8202   11.2166 C.3     1  UNL1        0.1533
      7 C          64.8751   91.4352   12.0556 C.3     1  UNL1        0.1198
      8 C          68.5819   92.7197   15.6976 C.3     1  UNL1        0.0366
      9 C          68.8649   91.9422   14.4465 C.3     1  UNL1        0.0060
     10 C          68.1194   92.2565   13.1833 C.3     1  UNL1        0.0094
     11 C          67.0910   93.3483   13.1713 C.3     1  UNL1        0.0767
     12 C          66.8080   94.1258   14.4225 C.3     1  UNL1        0.0094
     13 C          67.5534   93.8115   15.6856 C.3     1  UNL1        0.0060
     14 O          70.5082   93.2388   17.3618 O.co2   1  UNL1       -0.5492
     15 C          69.3273   92.4054   16.9607 C.2     1  UNL1        0.0500
     16 O          68.8919   91.2577   17.8228 O.co2   1  UNL1       -0.5492
     17 C          62.7194   89.9790   10.5947 C.ar    1  UNL1       -0.0005
     18 C          63.0846   88.8778    9.6440 C.ar    1  UNL1       -0.0029
     19 C          62.0096   88.0367    9.0221 C.ar    1  UNL1       -0.0015
     20 C          60.5694   88.2967    9.3509 C.ar    1  UNL1        0.0235
     21 C          60.2041   89.3979   10.3017 C.ar    1  UNL1       -0.0015
     22 C          61.2791   90.2391   10.9236 C.ar    1  UNL1       -0.0029
     23 C          59.4944   87.4555    8.7289 C.3     1  UNL1        0.3242
     24 F          59.4832   86.5731    9.9419 F       1  UNL1       -0.2176
     25 C          58.4194   86.6142    8.1071 C.3     1  UNL1        0.4363
     26 F          57.3445   85.7730    7.4852 F       1  UNL1       -0.1666
     27 F          59.4274   85.5427    7.8143 F       1  UNL1       -0.1666
     28 F          57.7513   87.1818    8.2339 F       1  UNL1       -0.1666
     29 C          59.5057   88.3378    7.5161 C.3     1  UNL1        0.4363
     30 F          59.5170   89.2202    6.3031 F       1  UNL1       -0.1666
     31 F          59.6955   87.7062    6.9248 F       1  UNL1       -0.1666
     32 F          59.1956   89.7022    8.0568 F       1  UNL1       -0.1666
     33 S          63.8217   89.7382   12.2550 S.O2    1  UNL1        0.0106
     34 O          63.3324   88.6563   11.6125 O.2     1  UNL1       -0.1684
     35 O          64.3887   90.7071   13.2499 O.2     1  UNL1       -0.1684
     36 C          63.8490   88.6560   13.2934 C.ar    1  UNL1        0.1061
     37 C          63.6747   87.2225   12.8875 C.ar    1  UNL1        0.0207
     38 C          63.7020   86.1404   13.9259 C.ar    1  UNL1        0.0310
     39 C          63.9035   86.4917   15.3702 C.ar    1  UNL1        0.1402
     40 F          63.9307   85.4096   16.4086 F       1  UNL1       -0.2042
     41 C          64.0777   87.9252   15.7762 C.ar    1  UNL1        0.0310
     42 C          64.0504   89.0073   14.7378 C.ar    1  UNL1        0.0207
@<TRIPOS>UNITY_ATOM_ATTR
14 1
charge -1
@<TRIPOS>BOND
     1    14    15   ar
     2    15    16   ar
     3     8    15    1
     4     8     9    1
     5     9    10    1
     6    10    11    1
     7    11     1    1
     8     1     2    2
     9     1     3   am
    10     3     4    1
    11     4     5    1
    12     5     6    1
    13     6    17    1
    14    17    18   ar
    15    18    19   ar
    16    19    20   ar
    17    20    23    1
    18    23    24    1
    19    23    25    1
    20    25    26    1
    21    25    27    1
    22    25    28    1
    23    23    29    1
    24    29    30    1
    25    29    31    1
    26    29    32    1
    27    20    21   ar
    28    21    22   ar
    29     6    33    1
    30    33    34    2
    31    33    35    2
    32    33    36    1
    33    36    37   ar
    34    37    38   ar
    35    38    39   ar
    36    39    40    1
    37    39    41   ar
    38    41    42   ar
    39     6     7    1
    40    11    12    1
    41    12    13    1
    42    13     8    1
    43     7     3    1
    44    22    17   ar
    45    42    36   ar
