@<TRIPOS>MOLECULE
*****
 37 40 0 0 0
SMALL
GASTEIGER

@<TRIPOS>ATOM
      1 N          62.3726   88.2444   11.1742 N.ar    1  UNL1       -0.3097
      2 C          61.6604   88.2990    9.8552 C.ar    1  UNL1        0.0418
      3 C          61.2365   87.1185    9.0325 C.3     1  UNL1        0.0504
      4 C          61.4466   89.7413    9.5032 C.ar    1  UNL1        0.0146
      5 C          62.0266   90.5782   10.6047 C.ar    1  UNL1        0.0188
      6 C          62.5989   89.6530   11.6374 C.ar    1  UNL1        0.0666
      7 C          63.2782   90.0643   12.9100 C.ar    1  UNL1        0.0506
      8 C          62.8316   89.4849   14.2196 C.ar    1  UNL1        0.0112
      9 C          63.5110   89.8962   15.4922 C.ar    1  UNL1        0.0348
     10 BR         63.0644   89.3169   16.8017 Br      1  UNL1       -0.0490
     11 C          64.6368   90.8868   15.4552 C.ar    1  UNL1        0.0098
     12 C          65.0833   91.4660   14.1456 C.ar    1  UNL1        0.0375
     13 C          64.4040   91.0548   12.8731 C.ar    1  UNL1        0.1404
     14 O          64.8506   91.6341   11.5634 O.3     1  UNL1       -0.4705
     15 C          66.2576   92.1284   11.4028 C.3     1  UNL1        0.2342
     16 C          66.5417   93.3102   10.5237 C.ar    1  UNL1        0.0488
     17 C          65.8172   94.6041   10.7492 C.ar    1  UNL1        0.0039
     18 C          66.1013   95.7858    9.8700 C.ar    1  UNL1        0.0296
     19 C          67.1099   95.6735    8.7654 C.ar    1  UNL1        0.1424
     20 F          67.3940   96.8552    7.8863 F       1  UNL1       -0.2041
     21 C          67.8343   94.3796    8.5400 C.ar    1  UNL1        0.0590
     22 C          67.5502   93.1979    9.4191 C.ar    1  UNL1        0.1418
     23 F          68.2747   91.9039    9.1935 F       1  UNL1       -0.2043
     24 C          62.8528   84.4078   12.0687 C.ar    1  UNL1        0.0518
     25 C          63.6123   84.5102   13.3580 C.ar    1  UNL1        0.0159
     26 C          63.9586   85.8574   13.9195 C.ar    1  UNL1        0.0167
     27 C          63.5454   87.1021   13.1916 C.ar    1  UNL1        0.0187
     28 C          62.7859   86.9996   11.9022 C.ar    1  UNL1        0.0649
     29 C          62.4396   85.6525   11.3407 C.ar    1  UNL1        0.0322
     30 C          63.2105   80.8974   10.2524 C.3     1  UNL1        0.0949
     31 C          63.5568   82.2445   10.8139 C.2     1  UNL1        0.2266
     32 O          64.9535   82.7755   10.6820 O.2     1  UNL1       -0.2748
     33 N          62.5065   83.0606   11.5072 N.am    1  UNL1       -0.2839
     34 H          61.5898   82.7121   11.5937 H       1  UNL1        0.1549
     35 C          64.7182   85.9598   15.2090 C.2     1  UNL1        0.0730
     36 O          63.9813   85.9608   16.5155 O.co2   1  UNL1       -0.5446
     37 O          66.2146   86.0612   15.1919 O.co2   1  UNL1       -0.5446
@<TRIPOS>UNITY_ATOM_ATTR
36 1
charge -1
@<TRIPOS>BOND
     1    30    31    1
     2    31    32    2
     3    31    33   am
     4    33    24    1
     5    24    25   ar
     6    25    26   ar
     7    26    35    1
     8    35    36   ar
     9    35    37   ar
    10    26    27   ar
    11    27    28   ar
    12    28     1    1
    13     1     2   ar
    14     2     3    1
    15     2     4   ar
    16     4     5   ar
    17     5     6   ar
    18     6     7    1
    19     7     8   ar
    20     8     9   ar
    21     9    10    1
    22     9    11   ar
    23    11    12   ar
    24    12    13   ar
    25    13    14    1
    26    14    15    1
    27    15    16    1
    28    16    17   ar
    29    17    18   ar
    30    18    19   ar
    31    19    20    1
    32    19    21   ar
    33    21    22   ar
    34    22    23    1
    35    28    29   ar
    36    29    24   ar
    37     6     1   ar
    38    13     7   ar
    39    22    16   ar
    40    33    34    1
@<TRIPOS>MOLECULE
*****
 37 40 0 0 0
SMALL
GASTEIGER

@<TRIPOS>ATOM
      1 N          62.4856   86.1783   10.5968 N.ar    1  UNL1       -0.3097
      2 C          62.9484   85.2578    9.5066 C.ar    1  UNL1        0.0418
      3 C          63.9374   84.1401    9.6570 C.3     1  UNL1        0.0504
      4 C          62.2485   85.6511    8.2395 C.ar    1  UNL1        0.0146
      5 C          61.3531   86.8148    8.5467 C.ar    1  UNL1        0.0188
      6 C          61.4997   87.1406   10.0035 C.ar    1  UNL1        0.0666
      7 C          60.7857   88.2363   10.7381 C.ar    1  UNL1        0.0506
      8 C          59.5282   87.9340   11.4981 C.ar    1  UNL1        0.0112
      9 C          58.8142   89.0297   12.2326 C.ar    1  UNL1        0.0348
     10 BR         57.5567   88.7275   12.9926 Br      1  UNL1       -0.0490
     11 C          59.3575   90.4276   12.2073 C.ar    1  UNL1        0.0098
     12 C          60.6150   90.7298   11.4474 C.ar    1  UNL1        0.0375
     13 C          61.3290   89.6341   10.7128 C.ar    1  UNL1        0.1404
     14 O          62.5865   89.9364    9.9529 O.3     1  UNL1       -0.4705
     15 C          63.1433   91.3291    9.9478 C.3     1  UNL1        0.2342
     16 C          64.2672   91.6910   10.8729 C.ar    1  UNL1        0.0488
     17 C          65.4857   92.3832   10.3380 C.ar    1  UNL1        0.0039
     18 C          66.6096   92.7450   11.2632 C.ar    1  UNL1        0.0296
     19 C          66.5150   92.4147   12.7233 C.ar    1  UNL1        0.1424
     20 F          67.6388   92.7765   13.6485 F       1  UNL1       -0.2041
     21 C          65.2965   91.7225   13.2582 C.ar    1  UNL1        0.0590
     22 C          64.1726   91.3606   12.3330 C.ar    1  UNL1        0.1418
     23 F          62.9541   90.6684   12.8680 F       1  UNL1       -0.2043
     24 C          63.8677   87.3591   14.1246 C.ar    1  UNL1        0.0518
     25 C          63.8207   86.0716   14.8928 C.ar    1  UNL1        0.0159
     26 C          63.3286   84.8197   14.2291 C.ar    1  UNL1        0.0167
     27 C          62.8836   84.8552   12.7971 C.ar    1  UNL1        0.0187
     28 C          62.9306   86.1427   12.0289 C.ar    1  UNL1        0.0649
     29 C          63.4227   87.3946   12.6926 C.ar    1  UNL1        0.0322
     30 C          63.9305   90.6593   16.3279 C.3     1  UNL1        0.0949
     31 C          63.4385   89.4074   15.6641 C.2     1  UNL1        0.2266
     32 O          62.0251   88.9519   15.8761 O.2     1  UNL1       -0.2748
     33 N          64.3598   88.6110   14.7884 N.am    1  UNL1       -0.2839
     34 H          65.2874   88.9100   14.6492 H       1  UNL1        0.1549
     35 C          63.2816   83.5322   14.9974 C.2     1  UNL1        0.0730
     36 O          64.4806   83.0798   15.7770 O.co2   1  UNL1       -0.5446
     37 O          62.0356   82.6972   14.9860 O.co2   1  UNL1       -0.5446
@<TRIPOS>UNITY_ATOM_ATTR
36 1
charge -1
@<TRIPOS>BOND
     1    30    31    1
     2    31    32    2
     3    31    33   am
     4    33    24    1
     5    24    25   ar
     6    25    26   ar
     7    26    35    1
     8    35    36   ar
     9    35    37   ar
    10    26    27   ar
    11    27    28   ar
    12    28     1    1
    13     1     2   ar
    14     2     3    1
    15     2     4   ar
    16     4     5   ar
    17     5     6   ar
    18     6     7    1
    19     7     8   ar
    20     8     9   ar
    21     9    10    1
    22     9    11   ar
    23    11    12   ar
    24    12    13   ar
    25    13    14    1
    26    14    15    1
    27    15    16    1
    28    16    17   ar
    29    17    18   ar
    30    18    19   ar
    31    19    20    1
    32    19    21   ar
    33    21    22   ar
    34    22    23    1
    35    28    29   ar
    36    29    24   ar
    37     6     1   ar
    38    13     7   ar
    39    22    16   ar
    40    33    34    1
@<TRIPOS>MOLECULE
*****
 37 40 0 0 0
SMALL
GASTEIGER

@<TRIPOS>ATOM
      1 N          62.6885   88.3713   11.3737 N.ar    1  UNL1       -0.3097
      2 C          62.0769   88.3451   10.0043 C.ar    1  UNL1        0.0418
      3 C          61.6260   87.1213    9.2634 C.3     1  UNL1        0.0504
      4 C          61.9954   89.7575    9.5059 C.ar    1  UNL1        0.0146
      5 C          62.5567   90.6566   10.5673 C.ar    1  UNL1        0.0188
      6 C          62.9850   89.7999   11.7217 C.ar    1  UNL1        0.0666
      7 C          63.6016   90.2864   12.9996 C.ar    1  UNL1        0.0506
      8 C          63.0589   89.8219   14.3186 C.ar    1  UNL1        0.0112
      9 C          63.6755   90.3085   15.5965 C.ar    1  UNL1        0.0348
     10 BR         63.1328   89.8440   16.9155 Br      1  UNL1       -0.0490
     11 C          64.8348   91.2595   15.5555 C.ar    1  UNL1        0.0098
     12 C          65.3775   91.7239   14.2365 C.ar    1  UNL1        0.0375
     13 C          64.7609   91.2374   12.9586 C.ar    1  UNL1        0.1404
     14 O          65.3036   91.7019   11.6396 O.3     1  UNL1       -0.4705
     15 C          66.5915   92.4689   11.5867 C.3     1  UNL1        0.2342
     16 C          66.7715   93.5639   10.5773 C.ar    1  UNL1        0.0488
     17 C          66.1793   94.9192   10.8273 C.ar    1  UNL1        0.0039
     18 C          66.3593   96.0141    9.8179 C.ar    1  UNL1        0.0296
     19 C          67.1316   95.7537    8.5587 C.ar    1  UNL1        0.1424
     20 F          67.3116   96.8486    7.5493 F       1  UNL1       -0.2041
     21 C          67.7238   94.3984    8.3087 C.ar    1  UNL1        0.0590
     22 C          67.5438   93.3035    9.3181 C.ar    1  UNL1        0.1418
     23 F          68.1360   91.9482    9.0680 F       1  UNL1       -0.2043
     24 C          63.4953   86.1693   14.5754 C.ar    1  UNL1        0.0518
     25 C          63.4927   84.7924   13.9804 C.ar    1  UNL1        0.0159
     26 C          63.2221   84.6084   12.5165 C.ar    1  UNL1        0.0167
     27 C          62.9541   85.8013   11.6476 C.ar    1  UNL1        0.0187
     28 C          62.9566   87.1783   12.2426 C.ar    1  UNL1        0.0649
     29 C          63.2272   87.3622   13.7065 C.ar    1  UNL1        0.0322
     30 C          62.9180   86.4095   18.4944 C.3     1  UNL1        0.0949
     31 C          62.6474   86.2255   17.0306 C.2     1  UNL1        0.2266
     32 O          61.2583   85.9137   16.5580 O.2     1  UNL1       -0.2748
     33 N          63.7658   86.3533   16.0393 N.am    1  UNL1       -0.2839
     34 H          64.6775   86.5579   16.3494 H       1  UNL1        0.1549
     35 C          63.2196   83.2314   11.9215 C.2     1  UNL1        0.0730
     36 O          63.6706   83.0252   10.5059 O.co2   1  UNL1       -0.5446
     37 O          62.7661   82.0606   12.7423 O.co2   1  UNL1       -0.5446
@<TRIPOS>UNITY_ATOM_ATTR
36 1
charge -1
@<TRIPOS>BOND
     1    30    31    1
     2    31    32    2
     3    31    33   am
     4    33    24    1
     5    24    25   ar
     6    25    26   ar
     7    26    35    1
     8    35    36   ar
     9    35    37   ar
    10    26    27   ar
    11    27    28   ar
    12    28     1    1
    13     1     2   ar
    14     2     3    1
    15     2     4   ar
    16     4     5   ar
    17     5     6   ar
    18     6     7    1
    19     7     8   ar
    20     8     9   ar
    21     9    10    1
    22     9    11   ar
    23    11    12   ar
    24    12    13   ar
    25    13    14    1
    26    14    15    1
    27    15    16    1
    28    16    17   ar
    29    17    18   ar
    30    18    19   ar
    31    19    20    1
    32    19    21   ar
    33    21    22   ar
    34    22    23    1
    35    28    29   ar
    36    29    24   ar
    37     6     1   ar
    38    13     7   ar
    39    22    16   ar
    40    33    34    1
@<TRIPOS>MOLECULE
*****
 37 40 0 0 0
SMALL
GASTEIGER

@<TRIPOS>ATOM
      1 N          61.5784   88.3671   10.6261 N.ar    1  UNL1       -0.3097
      2 C          60.5522   89.1192    9.8316 C.ar    1  UNL1        0.0418
      3 C          59.8509   88.6222    8.6024 C.3     1  UNL1        0.0504
      4 C          60.3504   90.4557   10.4822 C.ar    1  UNL1        0.0146
      5 C          61.2520   90.5295   11.6788 C.ar    1  UNL1        0.0188
      6 C          62.0109   89.2387   11.7677 C.ar    1  UNL1        0.0666
      7 C          63.0244   88.8821   12.8145 C.ar    1  UNL1        0.0506
      8 C          63.1848   87.4550   13.2478 C.ar    1  UNL1        0.0112
      9 C          64.1982   87.0984   14.2945 C.ar    1  UNL1        0.0348
     10 BR         64.3586   85.6714   14.7278 Br      1  UNL1       -0.0490
     11 C          65.0513   88.1689   14.9081 C.ar    1  UNL1        0.0098
     12 C          64.8909   89.5960   14.4748 C.ar    1  UNL1        0.0375
     13 C          63.8775   89.9525   13.4280 C.ar    1  UNL1        0.1404
     14 O          63.7171   91.3797   12.9947 O.3     1  UNL1       -0.4705
     15 C          64.9260   92.2026   12.6613 C.3     1  UNL1        0.2342
     16 C          66.0501   92.3180   13.6478 C.ar    1  UNL1        0.0488
     17 C          65.7579   92.6363   15.0842 C.ar    1  UNL1        0.0039
     18 C          66.8820   92.7516   16.0706 C.ar    1  UNL1        0.0296
     19 C          68.2984   92.5487   15.6206 C.ar    1  UNL1        0.1424
     20 F          69.4226   92.6641   16.6069 F       1  UNL1       -0.2041
     21 C          68.5907   92.2304   14.1841 C.ar    1  UNL1        0.0590
     22 C          67.4665   92.1150   13.1978 C.ar    1  UNL1        0.1418
     23 F          67.7589   91.7967   11.7613 F       1  UNL1       -0.2043
     24 C          62.8122   85.1756    8.6156 C.ar    1  UNL1        0.0518
     25 C          63.0935   84.2235    9.7401 C.ar    1  UNL1        0.0159
     26 C          62.8699   84.6527   11.1599 C.ar    1  UNL1        0.0167
     27 C          62.3649   86.0338   11.4552 C.ar    1  UNL1        0.0187
     28 C          62.0835   86.9859   10.3308 C.ar    1  UNL1        0.0649
     29 C          62.3071   86.5567    8.9110 C.ar    1  UNL1        0.0322
     30 C          62.0936   84.1747    4.8431 C.3     1  UNL1        0.0949
     31 C          61.8700   84.6039    6.2629 C.2     1  UNL1        0.2266
     32 O          60.4804   84.8904    6.7498 O.2     1  UNL1       -0.2748
     33 N          63.0358   84.7464    7.1958 N.am    1  UNL1       -0.2839
     34 H          63.9478   84.5584    6.8763 H       1  UNL1        0.1549
     35 C          63.1513   83.7005   12.2843 C.2     1  UNL1        0.0730
     36 O          64.4243   82.9072   12.2946 O.co2   1  UNL1       -0.5446
     37 O          62.1597   83.5418   13.3986 O.co2   1  UNL1       -0.5446
@<TRIPOS>UNITY_ATOM_ATTR
36 1
charge -1
@<TRIPOS>BOND
     1    30    31    1
     2    31    32    2
     3    31    33   am
     4    33    24    1
     5    24    25   ar
     6    25    26   ar
     7    26    35    1
     8    35    36   ar
     9    35    37   ar
    10    26    27   ar
    11    27    28   ar
    12    28     1    1
    13     1     2   ar
    14     2     3    1
    15     2     4   ar
    16     4     5   ar
    17     5     6   ar
    18     6     7    1
    19     7     8   ar
    20     8     9   ar
    21     9    10    1
    22     9    11   ar
    23    11    12   ar
    24    12    13   ar
    25    13    14    1
    26    14    15    1
    27    15    16    1
    28    16    17   ar
    29    17    18   ar
    30    18    19   ar
    31    19    20    1
    32    19    21   ar
    33    21    22   ar
    34    22    23    1
    35    28    29   ar
    36    29    24   ar
    37     6     1   ar
    38    13     7   ar
    39    22    16   ar
    40    33    34    1
@<TRIPOS>MOLECULE
*****
 37 40 0 0 0
SMALL
GASTEIGER

@<TRIPOS>ATOM
      1 N          63.3691   88.0850   14.3866 N.ar    1  UNL1       -0.3097
      2 C          63.4983   87.9721   15.8768 C.ar    1  UNL1        0.0418
      3 C          63.5866   86.6959   16.6600 C.3     1  UNL1        0.0504
      4 C          63.5238   89.3595   16.4463 C.ar    1  UNL1        0.0146
      5 C          63.4103   90.3299   15.3080 C.ar    1  UNL1        0.0188
      6 C          63.3147   89.5422   14.0351 C.ar    1  UNL1        0.0666
      7 C          63.1871   90.1117   12.6533 C.ar    1  UNL1        0.0506
      8 C          62.0512   89.6884   11.7696 C.ar    1  UNL1        0.0112
      9 C          61.9236   90.2579   10.3879 C.ar    1  UNL1        0.0348
     10 BR         60.7879   89.8346    9.5042 Br      1  UNL1       -0.0490
     11 C          62.9317   91.2507    9.8897 C.ar    1  UNL1        0.0098
     12 C          64.0675   91.6739   10.7734 C.ar    1  UNL1        0.0375
     13 C          64.1951   91.1044   12.1552 C.ar    1  UNL1        0.1404
     14 O          65.3309   91.5277   13.0388 O.3     1  UNL1       -0.4705
     15 C          66.6572   91.8848   12.4362 C.3     1  UNL1        0.2342
     16 C          66.7740   93.0762   11.5322 C.ar    1  UNL1        0.0488
     17 C          66.2510   94.4097   11.9775 C.ar    1  UNL1        0.0039
     18 C          66.3678   95.6010   11.0735 C.ar    1  UNL1        0.0296
     19 C          67.0076   95.4588    9.7243 C.ar    1  UNL1        0.1424
     20 F          67.1244   96.6501    8.8204 F       1  UNL1       -0.2041
     21 C          67.5307   94.1253    9.2791 C.ar    1  UNL1        0.0590
     22 C          67.4139   92.9340   10.1831 C.ar    1  UNL1        0.1418
     23 F          67.9370   91.6005    9.7377 F       1  UNL1       -0.2043
     24 C          63.8246   84.4665   12.8215 C.ar    1  UNL1        0.0518
     25 C          63.1783   84.6541   11.4809 C.ar    1  UNL1        0.0159
     26 C          62.5956   85.9853   11.1089 C.ar    1  UNL1        0.0167
     27 C          62.6592   87.1289   12.0775 C.ar    1  UNL1        0.0187
     28 C          63.3055   86.9413   13.4180 C.ar    1  UNL1        0.0649
     29 C          63.8882   85.6101   13.7900 C.ar    1  UNL1        0.0322
     30 C          64.0851   80.6657   13.9332 C.3     1  UNL1        0.0949
     31 C          63.5024   81.9969   13.5612 C.2     1  UNL1        0.2266
     32 O          62.0148   82.1897   13.5569 O.2     1  UNL1       -0.2748
     33 N          64.4073   83.1353   13.1935 N.am    1  UNL1       -0.2839
     34 H          65.3836   83.0088   13.1963 H       1  UNL1        0.1549
     35 C          61.9492   86.1729    9.7683 C.2     1  UNL1        0.0730
     36 O          62.7681   86.0519    8.5174 O.co2   1  UNL1       -0.5446
     37 O          60.4840   86.4814    9.6787 O.co2   1  UNL1       -0.5446
@<TRIPOS>UNITY_ATOM_ATTR
36 1
charge -1
@<TRIPOS>BOND
     1    30    31    1
     2    31    32    2
     3    31    33   am
     4    33    24    1
     5    24    25   ar
     6    25    26   ar
     7    26    35    1
     8    35    36   ar
     9    35    37   ar
    10    26    27   ar
    11    27    28   ar
    12    28     1    1
    13     1     2   ar
    14     2     3    1
    15     2     4   ar
    16     4     5   ar
    17     5     6   ar
    18     6     7    1
    19     7     8   ar
    20     8     9   ar
    21     9    10    1
    22     9    11   ar
    23    11    12   ar
    24    12    13   ar
    25    13    14    1
    26    14    15    1
    27    15    16    1
    28    16    17   ar
    29    17    18   ar
    30    18    19   ar
    31    19    20    1
    32    19    21   ar
    33    21    22   ar
    34    22    23    1
    35    28    29   ar
    36    29    24   ar
    37     6     1   ar
    38    13     7   ar
    39    22    16   ar
    40    33    34    1
@<TRIPOS>MOLECULE
*****
 37 40 0 0 0
SMALL
GASTEIGER

@<TRIPOS>ATOM
      1 N          63.3602   88.0938   14.2105 N.ar    1  UNL1       -0.3097
      2 C          63.5946   88.0027   15.6893 C.ar    1  UNL1        0.0418
      3 C          63.6497   86.7401   16.4972 C.3     1  UNL1        0.0504
      4 C          63.7641   89.3960   16.2185 C.ar    1  UNL1        0.0146
      5 C          63.6346   90.3482   15.0666 C.ar    1  UNL1        0.0188
      6 C          63.3849   89.5434   13.8257 C.ar    1  UNL1        0.0666
      7 C          63.1936   90.0918   12.4428 C.ar    1  UNL1        0.0506
      8 C          62.0884   89.5678   11.5744 C.ar    1  UNL1        0.0112
      9 C          61.8971   90.1163   10.1914 C.ar    1  UNL1        0.0348
     10 BR         60.7920   89.5923    9.3231 Br      1  UNL1       -0.0490
     11 C          62.8109   91.1888    9.6768 C.ar    1  UNL1        0.0098
     12 C          63.9161   91.7127   10.5452 C.ar    1  UNL1        0.0375
     13 C          64.1074   91.1642   11.9281 C.ar    1  UNL1        0.1404
     14 O          65.2126   91.6883   12.7965 O.3     1  UNL1       -0.4705
     15 C          66.5725   91.9336   12.2132 C.3     1  UNL1        0.2342
     16 C          66.7940   93.0942   11.2889 C.ar    1  UNL1        0.0488
     17 C          66.2755   94.4535   11.6542 C.ar    1  UNL1        0.0039
     18 C          66.4970   95.6140   10.7299 C.ar    1  UNL1        0.0296
     19 C          67.2370   95.4151    9.4404 C.ar    1  UNL1        0.1424
     20 F          67.4585   96.5755    8.5161 F       1  UNL1       -0.2041
     21 C          67.7554   94.0557    9.0752 C.ar    1  UNL1        0.0590
     22 C          67.5339   92.8953    9.9994 C.ar    1  UNL1        0.1418
     23 F          68.0524   91.5359    9.6341 F       1  UNL1       -0.2043
     24 C          61.9960   85.9296   11.1765 C.ar    1  UNL1        0.0518
     25 C          62.6990   84.6269   11.4189 C.ar    1  UNL1        0.0159
     26 C          63.6224   84.4798   12.5918 C.ar    1  UNL1        0.0167
     27 C          63.8428   85.6354   13.5223 C.ar    1  UNL1        0.0187
     28 C          63.1398   86.9381   13.2800 C.ar    1  UNL1        0.0649
     29 C          62.2164   87.0852   12.1071 C.ar    1  UNL1        0.0322
     30 C          60.6799   86.0771    7.4354 C.3     1  UNL1        0.0949
     31 C          61.6033   85.9300    8.6083 C.2     1  UNL1        0.2266
     32 O          63.0574   85.6362    8.3859 O.2     1  UNL1       -0.2748
     33 N          61.0726   86.0767   10.0036 N.am    1  UNL1       -0.2839
     34 H          60.1183   86.2695   10.1496 H       1  UNL1        0.1549
     35 C          64.3254   83.1770   12.8341 C.2     1  UNL1        0.0730
     36 O          64.9885   82.4596   11.6959 O.co2   1  UNL1       -0.5446
     37 O          64.3653   82.5918   14.2147 O.co2   1  UNL1       -0.5446
@<TRIPOS>UNITY_ATOM_ATTR
36 1
charge -1
@<TRIPOS>BOND
     1    30    31    1
     2    31    32    2
     3    31    33   am
     4    33    24    1
     5    24    25   ar
     6    25    26   ar
     7    26    35    1
     8    35    36   ar
     9    35    37   ar
    10    26    27   ar
    11    27    28   ar
    12    28     1    1
    13     1     2   ar
    14     2     3    1
    15     2     4   ar
    16     4     5   ar
    17     5     6   ar
    18     6     7    1
    19     7     8   ar
    20     8     9   ar
    21     9    10    1
    22     9    11   ar
    23    11    12   ar
    24    12    13   ar
    25    13    14    1
    26    14    15    1
    27    15    16    1
    28    16    17   ar
    29    17    18   ar
    30    18    19   ar
    31    19    20    1
    32    19    21   ar
    33    21    22   ar
    34    22    23    1
    35    28    29   ar
    36    29    24   ar
    37     6     1   ar
    38    13     7   ar
    39    22    16   ar
    40    33    34    1
@<TRIPOS>MOLECULE
*****
 37 40 0 0 0
SMALL
GASTEIGER

@<TRIPOS>ATOM
      1 N          62.5401   85.8444   10.4968 N.ar    1  UNL1       -0.3097
      2 C          63.0202   85.0263    9.3348 C.ar    1  UNL1        0.0418
      3 C          63.8485   83.7784    9.4175 C.3     1  UNL1        0.0504
      4 C          62.5268   85.6751    8.0756 C.ar    1  UNL1        0.0146
      5 C          61.7416   86.8942    8.4594 C.ar    1  UNL1        0.0188
      6 C          61.7498   86.9989    9.9557 C.ar    1  UNL1        0.0666
      7 C          61.0846   88.0699   10.7683 C.ar    1  UNL1        0.0506
      8 C          59.7872   87.7855   11.4655 C.ar    1  UNL1        0.0112
      9 C          59.1220   88.8565   12.2780 C.ar    1  UNL1        0.0348
     10 BR         57.8246   88.5722   12.9752 Br      1  UNL1       -0.0490
     11 C          59.7540   90.2120   12.3935 C.ar    1  UNL1        0.0098
     12 C          61.0513   90.4964   11.6964 C.ar    1  UNL1        0.0375
     13 C          61.7166   89.4253   10.8838 C.ar    1  UNL1        0.1404
     14 O          63.0140   89.7098   10.1866 O.3     1  UNL1       -0.4705
     15 C          63.5488   91.1103   10.1396 C.3     1  UNL1        0.2342
     16 C          64.3856   91.6320   11.2699 C.ar    1  UNL1        0.0488
     17 C          64.2112   91.0749   12.6516 C.ar    1  UNL1        0.0039
     18 C          65.0480   91.5966   13.7819 C.ar    1  UNL1        0.0296
     19 C          66.0593   92.6755   13.5304 C.ar    1  UNL1        0.1424
     20 F          66.8962   93.1972   14.6607 F       1  UNL1       -0.2041
     21 C          66.2338   93.2326   12.1487 C.ar    1  UNL1        0.0590
     22 C          65.3970   92.7109   11.0184 C.ar    1  UNL1        0.1418
     23 F          65.5715   93.2681    9.6367 F       1  UNL1       -0.2043
     24 C          62.8984   83.8801   13.9265 C.ar    1  UNL1        0.0518
     25 C          63.3315   84.9860   14.8427 C.ar    1  UNL1        0.0159
     26 C          63.5008   86.3781   14.3102 C.ar    1  UNL1        0.0167
     27 C          63.2370   86.6642   12.8616 C.ar    1  UNL1        0.0187
     28 C          62.8039   85.5583   11.9455 C.ar    1  UNL1        0.0649
     29 C          62.6346   84.1663   12.4779 C.ar    1  UNL1        0.0322
     30 C          62.3642   79.9494   14.0444 C.3     1  UNL1        0.0949
     31 C          62.5335   81.3414   13.5119 C.2     1  UNL1        0.2266
     32 O          62.5073   81.5868   12.0323 O.2     1  UNL1       -0.2748
     33 N          62.7290   82.4880   14.4590 N.am    1  UNL1       -0.2839
     34 H          62.7462   82.3270   15.4301 H       1  UNL1        0.1549
     35 C          63.9339   87.4840   15.2264 C.2     1  UNL1        0.0730
     36 O          63.3344   87.6011   16.5964 O.co2   1  UNL1       -0.5446
     37 O          64.9666   88.4728   14.7726 O.co2   1  UNL1       -0.5446
@<TRIPOS>UNITY_ATOM_ATTR
36 1
charge -1
@<TRIPOS>BOND
     1    30    31    1
     2    31    32    2
     3    31    33   am
     4    33    24    1
     5    24    25   ar
     6    25    26   ar
     7    26    35    1
     8    35    36   ar
     9    35    37   ar
    10    26    27   ar
    11    27    28   ar
    12    28     1    1
    13     1     2   ar
    14     2     3    1
    15     2     4   ar
    16     4     5   ar
    17     5     6   ar
    18     6     7    1
    19     7     8   ar
    20     8     9   ar
    21     9    10    1
    22     9    11   ar
    23    11    12   ar
    24    12    13   ar
    25    13    14    1
    26    14    15    1
    27    15    16    1
    28    16    17   ar
    29    17    18   ar
    30    18    19   ar
    31    19    20    1
    32    19    21   ar
    33    21    22   ar
    34    22    23    1
    35    28    29   ar
    36    29    24   ar
    37     6     1   ar
    38    13     7   ar
    39    22    16   ar
    40    33    34    1
@<TRIPOS>MOLECULE
*****
 37 40 0 0 0
SMALL
GASTEIGER

@<TRIPOS>ATOM
      1 N          62.3961   88.1658   11.1915 N.ar    1  UNL1       -0.3097
      2 C          61.7265   88.2465    9.8517 C.ar    1  UNL1        0.0418
      3 C          61.3428   87.0829    8.9863 C.3     1  UNL1        0.0504
      4 C          61.5079   89.6950    9.5292 C.ar    1  UNL1        0.0146
      5 C          62.0424   90.5095   10.6698 C.ar    1  UNL1        0.0188
      6 C          62.5913   89.5644   11.6971 C.ar    1  UNL1        0.0666
      7 C          63.2243   89.9503   13.0011 C.ar    1  UNL1        0.0506
      8 C          62.7512   89.3231   14.2790 C.ar    1  UNL1        0.0112
      9 C          63.3842   89.7089   15.5830 C.ar    1  UNL1        0.0348
     10 BR         62.9113   89.0818   16.8609 Br      1  UNL1       -0.0490
     11 C          64.4903   90.7219   15.6092 C.ar    1  UNL1        0.0098
     12 C          64.9632   91.3491   14.3314 C.ar    1  UNL1        0.0375
     13 C          64.3302   90.9632   13.0274 C.ar    1  UNL1        0.1404
     14 O          64.8033   91.5904   11.7495 O.3     1  UNL1       -0.4705
     15 C          65.8254   92.6876   11.7859 C.3     1  UNL1        0.2342
     16 C          66.7773   92.7878   12.9409 C.ar    1  UNL1        0.0488
     17 C          66.4703   93.7035   14.0886 C.ar    1  UNL1        0.0039
     18 C          67.4222   93.8037   15.2435 C.ar    1  UNL1        0.0296
     19 C          68.6812   92.9882   15.2507 C.ar    1  UNL1        0.1424
     20 F          69.6331   93.0884   16.4055 F       1  UNL1       -0.2041
     21 C          68.9882   92.0725   14.1029 C.ar    1  UNL1        0.0590
     22 C          68.0362   91.9723   12.9480 C.ar    1  UNL1        0.1418
     23 F          68.3433   91.0566   11.8003 F       1  UNL1       -0.2043
     24 C          62.8345   84.3130   12.0366 C.ar    1  UNL1        0.0518
     25 C          63.6065   84.3905   13.3203 C.ar    1  UNL1        0.0159
     26 C          63.9751   85.7263   13.8944 C.ar    1  UNL1        0.0167
     27 C          63.5716   86.9848   13.1849 C.ar    1  UNL1        0.0187
     28 C          62.7996   86.9073   11.9012 C.ar    1  UNL1        0.0649
     29 C          62.4310   85.5715   11.3270 C.ar    1  UNL1        0.0322
     30 C          63.1489   80.7840   10.2487 C.3     1  UNL1        0.0949
     31 C          63.5174   82.1198   10.8228 C.2     1  UNL1        0.2266
     32 O          64.9376   82.5983   10.7573 O.2     1  UNL1       -0.2748
     33 N          62.4659   82.9772   11.4625 N.am    1  UNL1       -0.2839
     34 H          61.5338   82.6631   11.5055 H       1  UNL1        0.1549
     35 C          64.7471   85.8037   15.1782 C.2     1  UNL1        0.0730
     36 O          66.2378   85.9672   15.1482 O.co2   1  UNL1       -0.5446
     37 O          64.0284   85.7176   16.4920 O.co2   1  UNL1       -0.5446
@<TRIPOS>UNITY_ATOM_ATTR
36 1
charge -1
@<TRIPOS>BOND
     1    30    31    1
     2    31    32    2
     3    31    33   am
     4    33    24    1
     5    24    25   ar
     6    25    26   ar
     7    26    35    1
     8    35    36   ar
     9    35    37   ar
    10    26    27   ar
    11    27    28   ar
    12    28     1    1
    13     1     2   ar
    14     2     3    1
    15     2     4   ar
    16     4     5   ar
    17     5     6   ar
    18     6     7    1
    19     7     8   ar
    20     8     9   ar
    21     9    10    1
    22     9    11   ar
    23    11    12   ar
    24    12    13   ar
    25    13    14    1
    26    14    15    1
    27    15    16    1
    28    16    17   ar
    29    17    18   ar
    30    18    19   ar
    31    19    20    1
    32    19    21   ar
    33    21    22   ar
    34    22    23    1
    35    28    29   ar
    36    29    24   ar
    37     6     1   ar
    38    13     7   ar
    39    22    16   ar
    40    33    34    1
@<TRIPOS>MOLECULE
*****
 37 40 0 0 0
SMALL
GASTEIGER

@<TRIPOS>ATOM
      1 N          63.3319   87.6070   14.1702 N.ar    1  UNL1       -0.3097
      2 C          63.6432   87.4075   15.6239 C.ar    1  UNL1        0.0418
      3 C          63.8605   86.0895   16.3063 C.3     1  UNL1        0.0504
      4 C          63.6990   88.7574   16.2755 C.ar    1  UNL1        0.0146
      5 C          63.4223   89.7912   15.2244 C.ar    1  UNL1        0.0188
      6 C          63.1954   89.0802   13.9233 C.ar    1  UNL1        0.0666
      7 C          62.8863   89.7286   12.6065 C.ar    1  UNL1        0.0506
      8 C          61.5659   89.4796   11.9396 C.ar    1  UNL1        0.0112
      9 C          61.2568   90.1280   10.6228 C.ar    1  UNL1        0.0348
     10 BR         59.9365   89.8791    9.9559 Br      1  UNL1       -0.0490
     11 C          62.2679   91.0254    9.9728 C.ar    1  UNL1        0.0098
     12 C          63.5882   91.2743   10.6397 C.ar    1  UNL1        0.0375
     13 C          63.8973   90.6259   11.9565 C.ar    1  UNL1        0.1404
     14 O          65.2177   90.8748   12.6235 O.3     1  UNL1       -0.4705
     15 C          65.5569   92.2464   13.1270 C.3     1  UNL1        0.2342
     16 C          66.6900   92.4322   14.0922 C.ar    1  UNL1        0.0488
     17 C          68.1048   92.4476   13.5940 C.ar    1  UNL1        0.0039
     18 C          69.2378   92.6333   14.5592 C.ar    1  UNL1        0.0296
     19 C          68.9561   92.8036   16.0226 C.ar    1  UNL1        0.1424
     20 F          70.0892   92.9894   16.9878 F       1  UNL1       -0.2041
     21 C          67.5414   92.7882   16.5208 C.ar    1  UNL1        0.0590
     22 C          66.4083   92.6024   15.5556 C.ar    1  UNL1        0.1418
     23 F          64.9935   92.5870   16.0539 F       1  UNL1       -0.2043
     24 C          63.5044   84.0483   12.4220 C.ar    1  UNL1        0.0518
     25 C          62.8861   84.3563   11.0905 C.ar    1  UNL1        0.0159
     26 C          62.4165   85.7479   10.7856 C.ar    1  UNL1        0.0167
     27 C          62.5651   86.8314   11.8121 C.ar    1  UNL1        0.0187
     28 C          63.1833   86.5234   13.1436 C.ar    1  UNL1        0.0649
     29 C          63.6529   85.1318   13.4485 C.ar    1  UNL1        0.0322
     30 C          63.6313   80.3792   13.9292 C.3     1  UNL1        0.0949
     31 C          63.1617   81.7708   13.6242 C.2     1  UNL1        0.2266
     32 O          61.8796   82.2764   14.2166 O.2     1  UNL1       -0.2748
     33 N          63.9740   82.6567   12.7270 N.am    1  UNL1       -0.2839
     34 H          64.8154   82.3249   12.3382 H       1  UNL1        0.1549
     35 C          61.7983   86.0559    9.4540 C.2     1  UNL1        0.0730
     36 O          62.5665   85.7957    8.1923 O.co2   1  UNL1       -0.5446
     37 O          60.4118   86.6240    9.3843 O.co2   1  UNL1       -0.5446
@<TRIPOS>UNITY_ATOM_ATTR
36 1
charge -1
@<TRIPOS>BOND
     1    30    31    1
     2    31    32    2
     3    31    33   am
     4    33    24    1
     5    24    25   ar
     6    25    26   ar
     7    26    35    1
     8    35    36   ar
     9    35    37   ar
    10    26    27   ar
    11    27    28   ar
    12    28     1    1
    13     1     2   ar
    14     2     3    1
    15     2     4   ar
    16     4     5   ar
    17     5     6   ar
    18     6     7    1
    19     7     8   ar
    20     8     9   ar
    21     9    10    1
    22     9    11   ar
    23    11    12   ar
    24    12    13   ar
    25    13    14    1
    26    14    15    1
    27    15    16    1
    28    16    17   ar
    29    17    18   ar
    30    18    19   ar
    31    19    20    1
    32    19    21   ar
    33    21    22   ar
    34    22    23    1
    35    28    29   ar
    36    29    24   ar
    37     6     1   ar
    38    13     7   ar
    39    22    16   ar
    40    33    34    1
