@<TRIPOS>MOLECULE
*****
 35 39 0 0 0
SMALL
GASTEIGER

@<TRIPOS>ATOM
      1 O          63.4790   87.3403   12.7975 O.2     1  UNL1       -0.2699
      2 C          62.7231   86.7040   11.6689 C.2     1  UNL1        0.2506
      3 N          61.6945   87.4942   10.9155 N.am    1  UNL1       -0.2723
      4 C          60.9386   86.8580    9.7869 C.3     1  UNL1        0.1257
      5 C          59.9100   87.6482    9.0335 C.3     1  UNL1        0.1637
      6 O          59.6373   89.0747    9.4088 O.3     1  UNL1       -0.3502
      7 C          60.3932   89.7109   10.5374 C.3     1  UNL1        0.1622
      8 C          61.4218   88.9208   11.2907 C.3     1  UNL1        0.1096
      9 C          62.9958   85.2775   11.2936 C.ar    1  UNL1        0.0729
     10 C          63.0825   84.8856    9.8483 C.ar    1  UNL1        0.0061
     11 C          63.3551   83.4592    9.4731 C.ar    1  UNL1        0.0002
     12 C          63.5411   82.4246   10.5431 C.ar    1  UNL1        0.0054
     13 C          63.4544   82.8165   11.9884 C.ar    1  UNL1        0.0909
     14 C          63.1818   84.2429   12.3637 C.ar    1  UNL1        0.1111
     15 N          63.0951   84.6348   13.8090 N.ar    1  UNL1       -0.1477
     16 N          61.8569   84.6138   14.6555 N.ar    1  UNL1       -0.1447
     17 C          62.2279   85.0825   16.0312 C.ar    1  UNL1        0.1446
     18 C          63.6954   85.3932   16.0350 C.ar    1  UNL1        0.1446
     19 N          64.2313   85.1165   14.6616 N.ar    1  UNL1       -0.1447
     20 C          63.6405   81.7819   13.0585 C.3     1  UNL1        0.4200
     21 F          63.8265   80.7473   14.1285 F       1  UNL1       -0.1658
     22 F          62.1525   81.6778   13.2166 F       1  UNL1       -0.1658
     23 F          65.1284   81.8859   12.9004 F       1  UNL1       -0.1658
     24 C          62.1777   89.5570   12.4193 C.3     1  UNL1        0.0488
     25 C          63.2648   90.5489   12.1289 C.ar    1  UNL1       -0.0189
     26 C          63.3814   91.1548   10.7617 C.ar    1  UNL1       -0.0041
     27 C          64.4686   92.1467   10.4712 C.ar    1  UNL1        0.0013
     28 C          65.4390   92.5326   11.5479 C.ar    1  UNL1        0.0209
     29 C          65.3224   91.9266   12.9151 C.ar    1  UNL1        0.1026
     30 C          64.2353   90.9348   13.2056 C.ar    1  UNL1        0.0167
     31 N          66.2928   92.3125   13.9918 N.ar    1  UNL1       -0.1478
     32 N          65.9445   92.6672   15.4070 N.ar    1  UNL1       -0.1447
     33 C          67.2184   92.9854   16.1322 C.ar    1  UNL1        0.1446
     34 C          68.3541   92.8274   15.1651 C.ar    1  UNL1        0.1446
     35 N          67.7822   92.4116   13.8423 N.ar    1  UNL1       -0.1447
@<TRIPOS>BOND
     1     1     2    2
     2     2     9    1
     3     9    10   ar
     4    10    11   ar
     5    11    12   ar
     6    12    13   ar
     7    13    20    1
     8    20    21    1
     9    20    22    1
    10    20    23    1
    11    13    14   ar
    12    14    15    1
    13    15    16   ar
    14    16    17   ar
    15    17    18   ar
    16    18    19   ar
    17     2     3   am
    18     3     4    1
    19     4     5    1
    20     5     6    1
    21     6     7    1
    22     7     8    1
    23     8    24    1
    24    24    25    1
    25    25    26   ar
    26    26    27   ar
    27    27    28   ar
    28    28    29   ar
    29    29    31    1
    30    31    32   ar
    31    32    33   ar
    32    33    34   ar
    33    34    35   ar
    34    29    30   ar
    35    14     9   ar
    36    19    15   ar
    37     8     3    1
    38    30    25   ar
    39    35    31   ar
@<TRIPOS>MOLECULE
*****
 35 39 0 0 0
SMALL
GASTEIGER

@<TRIPOS>ATOM
      1 O          63.5073   87.4245   13.3359 O.2     1  UNL1       -0.2699
      2 C          62.8916   87.1506   11.9958 C.2     1  UNL1        0.2506
      3 N          62.1478   88.2363   11.2761 N.am    1  UNL1       -0.2723
      4 C          61.5321   87.9624    9.9360 C.3     1  UNL1        0.1257
      5 C          60.7883   89.0482    9.2163 C.3     1  UNL1        0.1637
      6 O          60.6603   90.4078    9.8367 O.3     1  UNL1       -0.3502
      7 C          61.2760   90.6817   11.1768 C.3     1  UNL1        0.1622
      8 C          62.0198   89.5960   11.8965 C.3     1  UNL1        0.1096
      9 C          63.0197   85.7909   11.3754 C.ar    1  UNL1        0.0729
     10 C          63.0060   85.6432    9.8828 C.ar    1  UNL1        0.0061
     11 C          63.1341   84.2836    9.2624 C.ar    1  UNL1        0.0002
     12 C          63.2758   83.0716   10.1346 C.ar    1  UNL1        0.0054
     13 C          63.2894   83.2192   11.6273 C.ar    1  UNL1        0.0909
     14 C          63.1614   84.5788   12.2477 C.ar    1  UNL1        0.1111
     15 N          63.1750   84.7265   13.7403 N.ar    1  UNL1       -0.1477
     16 N          64.3842   84.9837   14.5899 N.ar    1  UNL1       -0.1447
     17 C          63.9384   85.0590   16.0201 C.ar    1  UNL1        0.1446
     18 C          62.4537   84.8483   16.0545 C.ar    1  UNL1        0.1446
     19 N          61.9819   84.6428   14.6456 N.ar    1  UNL1       -0.1447
     20 C          63.4312   82.0071   12.4996 C.3     1  UNL1        0.4200
     21 F          63.5729   80.7951   13.3718 F       1  UNL1       -0.1658
     22 F          61.9407   81.8388   12.5079 F       1  UNL1       -0.1658
     23 F          64.9216   82.1754   12.4912 F       1  UNL1       -0.1658
     24 C          62.6355   89.8700   13.2366 C.3     1  UNL1        0.0488
     25 C          63.9357   90.6124   13.3269 C.ar    1  UNL1       -0.0189
     26 C          64.8000   90.4658   14.5440 C.ar    1  UNL1       -0.0041
     27 C          66.1003   91.2083   14.6344 C.ar    1  UNL1        0.0013
     28 C          66.5362   92.0973   13.5076 C.ar    1  UNL1        0.0209
     29 C          65.6718   92.2439   12.2905 C.ar    1  UNL1        0.1026
     30 C          64.3716   91.5014   12.2001 C.ar    1  UNL1        0.0167
     31 N          66.1077   93.1329   11.1637 N.ar    1  UNL1       -0.1478
     32 N          67.0741   92.7682   10.0761 N.ar    1  UNL1       -0.1447
     33 C          67.2174   93.9526    9.1669 C.ar    1  UNL1        0.1446
     34 C          66.3394   95.0494    9.6926 C.ar    1  UNL1        0.1446
     35 N          65.6535   94.5428   10.9267 N.ar    1  UNL1       -0.1447
@<TRIPOS>BOND
     1     1     2    2
     2     2     9    1
     3     9    10   ar
     4    10    11   ar
     5    11    12   ar
     6    12    13   ar
     7    13    20    1
     8    20    21    1
     9    20    22    1
    10    20    23    1
    11    13    14   ar
    12    14    15    1
    13    15    16   ar
    14    16    17   ar
    15    17    18   ar
    16    18    19   ar
    17     2     3   am
    18     3     4    1
    19     4     5    1
    20     5     6    1
    21     6     7    1
    22     7     8    1
    23     8    24    1
    24    24    25    1
    25    25    26   ar
    26    26    27   ar
    27    27    28   ar
    28    28    29   ar
    29    29    31    1
    30    31    32   ar
    31    32    33   ar
    32    33    34   ar
    33    34    35   ar
    34    29    30   ar
    35    14     9   ar
    36    19    15   ar
    37     8     3    1
    38    30    25   ar
    39    35    31   ar
