@<TRIPOS>MOLECULE
*****
 56 62 0 0 0
SMALL
GASTEIGER

@<TRIPOS>ATOM
      1 N          58.7937   95.6686   -5.7778 N.3     1  UNL1       -0.1862
      2 C          59.8411   95.6444   -6.8512 C.3     1  UNL1        0.1775
      3 C          61.2929   95.7349   -6.4848 C.2     1  UNL1        0.2452
      4 O          62.3403   95.7107   -7.5583 O.2     1  UNL1       -0.2732
      5 N          61.6972   95.8495   -5.0449 N.am    1  UNL1       -0.2541
      6 C          60.6498   95.8737   -3.9715 C.3     1  UNL1        0.1908
      7 C          61.0541   95.9883   -2.5315 C.3     1  UNL1        0.1359
      8 N          62.5059   96.0788   -2.1650 N.am    1  UNL1       -0.2705
      9 C          63.5533   96.0546   -3.2386 C.2     1  UNL1        0.2445
     10 O          65.0050   96.1450   -2.8721 O.2     1  UNL1       -0.2731
     11 C          63.1489   95.9399   -4.6785 C.3     1  UNL1        0.1577
     12 N          59.1981   95.7832   -4.3379 N.am    1  UNL1       -0.1863
     13 C          58.1507   95.8074   -3.2643 C.2     1  UNL1        0.3191
     14 O          58.5550   95.9221   -1.8245 O.2     1  UNL1       -0.2512
     15 N          56.6989   95.7170   -3.6308 N.am    1  UNL1       -0.2836
     16 H          56.4335   95.6418   -4.5759 H       1  UNL1        0.1513
     17 C          57.3420   95.5782   -6.1442 C.3     1  UNL1        0.1188
     18 C          56.0478   93.3381   -6.3832 C.2     1  UNL1       -0.0034
     19 C          56.8528   94.4451   -6.9968 C.2     1  UNL1       -0.0071
     20 C          62.9102   96.1934   -0.7251 C.3     1  UNL1        0.1217
     21 C          62.9469   94.9708    0.1432 C.ar    1  UNL1        0.0135
     22 C          64.1103   94.0274    0.0613 C.ar    1  UNL1       -0.0012
     23 C          64.1470   92.8048    0.9296 C.ar    1  UNL1       -0.0002
     24 C          63.0205   92.5257    1.8798 C.ar    1  UNL1        0.0015
     25 C          61.8571   93.4690    1.9617 C.ar    1  UNL1        0.0170
     26 C          60.6111   93.4560    2.7967 C.ar    1  UNL1        0.0186
     27 C          59.8043   94.6704    2.4445 C.ar    1  UNL1        0.0759
     28 N          60.5517   95.4341    1.3918 N.ar    1  UNL1       -0.3242
     29 C          60.1082   96.7153    0.7501 C.3     1  UNL1        0.1305
     30 C          61.8204   94.6916    1.0934 C.ar    1  UNL1        0.0575
     31 C          60.2375   92.4117    3.8067 C.ar    1  UNL1        0.0016
     32 C          58.8182   92.2986    4.2787 C.ar    1  UNL1        0.0014
     33 C          58.4447   91.2544    5.2886 C.ar    1  UNL1        0.0183
     34 C          59.4904   90.3232    5.8265 C.ar    1  UNL1        0.1057
     35 C          60.9097   90.4362    5.3545 C.ar    1  UNL1        0.0183
     36 C          61.2832   91.4805    4.3446 C.ar    1  UNL1        0.0014
     37 S          59.1168   89.2790    6.8365 S.O2    1  UNL1        0.0104
     38 C          58.7433   88.2347    7.8465 C.3     1  UNL1        0.1816
     39 O          60.5395   89.2268    7.3089 O.2     1  UNL1       -0.1686
     40 O          57.6941   89.3310    6.3641 O.2     1  UNL1       -0.1686
     41 C          64.1963   95.9158   -5.7519 C.3     1  UNL1        0.0556
     42 C          64.7768   94.6086   -6.2042 C.ar    1  UNL1       -0.0198
     43 C          66.0220   94.5902   -7.0402 C.ar    1  UNL1       -0.0011
     44 C          66.6024   93.2830   -7.4924 C.ar    1  UNL1        0.0363
     45 C          65.9376   91.9944   -7.1086 C.ar    1  UNL1        0.1337
     46 O          66.5180   90.6872   -7.5609 O.3     1  UNL1       -0.5055
     47 C          64.6923   92.0128   -6.2726 C.ar    1  UNL1        0.0363
     48 C          64.1118   93.3199   -5.8204 C.ar    1  UNL1       -0.0011
     49 H          67.2959   90.6757   -8.0831 H       1  UNL1        0.2922
     50 C          55.6515   95.7412   -2.5573 C.3     1  UNL1        0.1177
     51 C          54.2030   95.8682   -2.9256 C.ar    1  UNL1       -0.0025
     52 C          53.1439   95.6766   -1.8807 C.ar    1  UNL1       -0.0026
     53 C          51.6954   95.8036   -2.2490 C.ar    1  UNL1       -0.0003
     54 C          51.3059   96.1222   -3.6620 C.ar    1  UNL1       -0.0000
     55 C          52.3649   96.3138   -4.7069 C.ar    1  UNL1       -0.0003
     56 C          53.8135   96.1868   -4.3387 C.ar    1  UNL1       -0.0026
@<TRIPOS>BOND
     1    18    19    2
     2    19    17    1
     3    17     1    1
     4     1     2    1
     5     2     3    1
     6     3     4    2
     7     3     5   am
     8     5     6    1
     9     6     7    1
    10     7     8    1
    11     8    20    1
    12    20    21    1
    13    21    22   ar
    14    22    23   ar
    15    23    24   ar
    16    24    25   ar
    17    25    26   ar
    18    26    31    1
    19    31    32   ar
    20    32    33   ar
    21    33    34   ar
    22    34    37    1
    23    37    38    1
    24    37    39    2
    25    37    40    2
    26    34    35   ar
    27    35    36   ar
    28    26    27   ar
    29    27    28   ar
    30    28    29    1
    31    28    30   ar
    32     8     9   am
    33     9    10    2
    34     9    11    1
    35    11    41    1
    36    41    42    1
    37    42    43   ar
    38    43    44   ar
    39    44    45   ar
    40    45    46    1
    41    45    47   ar
    42    47    48   ar
    43     6    12    1
    44    12    13   am
    45    13    14    2
    46    13    15   am
    47    15    50    1
    48    50    51    1
    49    51    52   ar
    50    52    53   ar
    51    53    54   ar
    52    54    55   ar
    53    55    56   ar
    54    12     1    1
    55    56    51   ar
    56    11     5    1
    57    48    42   ar
    58    30    21   ar
    59    30    25   ar
    60    36    31   ar
    61    46    49    1
    62    15    16    1
