@<TRIPOS>MOLECULE
*****
 41 46 0 0 0
SMALL
GASTEIGER

@<TRIPOS>ATOM
      1 C          62.3007   86.2825   11.1059 C.ar    1  UNL1        0.0570
      2 C          62.4892   84.7944   11.0976 C.ar    1  UNL1        0.1237
      3 N          63.3127   84.4249   12.2956 N.ar    1  UNL1       -0.1598
      4 N          63.6331   85.6845   13.0443 N.ar    1  UNL1       -0.1820
      5 C          64.4136   85.9345   14.3006 C.ar    1  UNL1        0.2232
      6 N          64.5687   87.3325   14.8216 N.ar    1  UNL1       -0.1609
      7 C          63.9432   88.4806   14.0863 C.ar    1  UNL1        0.3284
      8 N          63.1627   88.2306   12.8300 N.ar    1  UNL1       -0.1746
      9 C          63.0077   86.8326   12.3090 C.ar    1  UNL1        0.1727
     10 C          58.9600   86.4897    7.1313 C.3     1  UNL1        0.0312
     11 C          59.8685   87.1840    8.1021 C.ar    1  UNL1       -0.0175
     12 C          60.6303   86.3862    9.1186 C.ar    1  UNL1       -0.0040
     13 C          61.5389   87.0804   10.0894 C.ar    1  UNL1        0.0042
     14 C          61.6857   88.5725   10.0439 C.ar    1  UNL1        0.0003
     15 C          60.9239   89.3703    9.0274 C.ar    1  UNL1        0.0042
     16 C          60.0153   88.6761    8.0566 C.ar    1  UNL1        0.0494
     17 C          59.2536   89.4740    7.0402 C.2     1  UNL1        0.2455
     18 O          57.7776   89.2641    6.8750 O.2     1  UNL1       -0.2702
     19 N          59.9678   90.4817    6.1891 N.am    1  UNL1       -0.3025
     20 H          60.9366   90.6194    6.2975 H       1  UNL1        0.1497
     21 C          59.2060   91.2796    5.1726 C.3     1  UNL1        0.0720
     22 C          57.9004   91.7245    4.5833 C.3     1  UNL1        0.0213
     23 C          59.1923   92.2167    4.0015 C.3     1  UNL1        0.0213
     24 N          65.0391   84.7864   15.0359 N.pl3   1  UNL1       -0.3028
     25 H          66.0192   84.7163   15.0970 H       1  UNL1        0.1496
     26 C          64.1712   83.7450   15.6781 C.3     1  UNL1        0.0897
     27 C          63.4976   82.7048   14.8329 C.3     1  UNL1        0.0246
     28 C          62.0146   82.5030   14.9321 C.3     1  UNL1        0.0338
     29 C          61.3410   81.4629   14.0868 C.3     1  UNL1        0.1422
     30 O          62.1505   80.6246   13.1424 O.3     1  UNL1       -0.3538
     31 C          63.6336   80.8263   13.0432 C.3     1  UNL1        0.1422
     32 C          64.3072   81.8665   13.8884 C.3     1  UNL1        0.0338
     33 O          64.0982   89.8786   14.6073 O.3     1  UNL1       -0.4198
     34 C          64.9764   90.8558   13.8834 C.ar    1  UNL1        0.1782
     35 C          66.3437   91.1709   14.4134 C.ar    1  UNL1        0.0401
     36 C          67.2219   92.1480   13.6895 C.ar    1  UNL1        0.0056
     37 C          66.7327   92.8100   12.4355 C.ar    1  UNL1        0.0322
     38 C          65.3653   92.4949   11.9055 C.ar    1  UNL1        0.1704
     39 F          64.8760   93.1569   10.6515 F       1  UNL1       -0.2017
     40 C          64.4872   91.5177   12.6295 C.ar    1  UNL1        0.2017
     41 F          63.1197   91.2026   12.0994 F       1  UNL1       -0.1986
@<TRIPOS>BOND
     1    10    11    1
     2    11    12   ar
     3    12    13   ar
     4    13     1    1
     5     1     2   ar
     6     2     3   ar
     7     3     4   ar
     8     4     5   ar
     9     5    24    1
    10    24    26    1
    11    26    27    1
    12    27    28    1
    13    28    29    1
    14    29    30    1
    15    30    31    1
    16    31    32    1
    17     5     6   ar
    18     6     7   ar
    19     7    33    1
    20    33    34    1
    21    34    35   ar
    22    35    36   ar
    23    36    37   ar
    24    37    38   ar
    25    38    39    1
    26    38    40   ar
    27    40    41    1
    28     7     8   ar
    29     8     9   ar
    30    13    14   ar
    31    14    15   ar
    32    15    16   ar
    33    16    17    1
    34    17    18    2
    35    17    19   am
    36    19    21    1
    37    21    22    1
    38    22    23    1
    39    16    11   ar
    40    23    21    1
    41     9     1   ar
    42     9     4   ar
    43    32    27    1
    44    40    34   ar
    45    24    25    1
    46    19    20    1
@<TRIPOS>MOLECULE
*****
 41 46 0 0 0
SMALL
GASTEIGER

@<TRIPOS>ATOM
      1 C          64.0824   89.0722   14.2063 C.ar    1  UNL1        0.0570
      2 C          64.0493   88.7832   15.6778 C.ar    1  UNL1        0.1237
      3 N          63.4779   87.4094   15.8676 N.ar    1  UNL1       -0.1598
      4 N          63.1579   86.8493   14.5134 N.ar    1  UNL1       -0.1820
      5 C          62.5746   85.5362   14.0826 C.ar    1  UNL1        0.2232
      6 N          62.3648   85.2508   12.6249 N.ar    1  UNL1       -0.1609
      7 C          62.7384   86.2785   11.5982 C.ar    1  UNL1        0.3284
      8 N          63.3217   87.5916   12.0290 N.ar    1  UNL1       -0.1746
      9 C          63.5315   87.8770   13.4866 C.ar    1  UNL1        0.1727
     10 C          67.3385   93.1215   14.1752 C.3     1  UNL1        0.0312
     11 C          66.2072   92.3595   13.5511 C.ar    1  UNL1       -0.0175
     12 C          65.7104   91.0969   14.1907 C.ar    1  UNL1       -0.0040
     13 C          64.5791   90.3348   13.5666 C.ar    1  UNL1        0.0042
     14 C          63.9447   90.8353   12.3029 C.ar    1  UNL1        0.0003
     15 C          64.4415   92.0979   11.6633 C.ar    1  UNL1        0.0042
     16 C          65.5728   92.8600   12.2874 C.ar    1  UNL1        0.0494
     17 C          66.0696   94.1225   11.6478 C.2     1  UNL1        0.2455
     18 O          66.1444   95.3892   12.4476 O.2     1  UNL1       -0.2702
     19 N          66.4914   94.1184   10.2083 N.am    1  UNL1       -0.3025
     20 H          66.4422   93.2870    9.6834 H       1  UNL1        0.1497
     21 C          66.9882   95.3809    9.5687 C.3     1  UNL1        0.0720
     22 C          67.2571   96.8549    9.6405 C.3     1  UNL1        0.0213
     23 C          67.5798   96.0938    8.3889 C.3     1  UNL1        0.0213
     24 N          62.2010   84.5085   15.1094 N.pl3   1  UNL1       -0.3028
     25 H          61.4297   84.6621   15.7016 H       1  UNL1        0.1496
     26 C          63.0026   83.2467   15.2337 C.3     1  UNL1        0.0897
     27 C          62.9295   82.2027   14.1591 C.3     1  UNL1        0.0246
     28 C          62.0223   81.0196   14.3234 C.3     1  UNL1        0.0338
     29 C          61.9491   79.9756   13.2487 C.3     1  UNL1        0.1422
     30 O          62.7832   80.1148   12.0099 O.3     1  UNL1       -0.3538
     31 C          63.6905   81.2981   11.8455 C.3     1  UNL1        0.1422
     32 C          63.7636   82.3420   12.9202 C.3     1  UNL1        0.0338
     33 O          62.5287   85.9932   10.1406 O.3     1  UNL1       -0.4198
     34 C          61.4171   86.6713    9.3960 C.ar    1  UNL1        0.1782
     35 C          60.4969   85.8670    8.5263 C.ar    1  UNL1        0.0401
     36 C          59.3853   86.5451    7.7817 C.ar    1  UNL1        0.0056
     37 C          59.1939   88.0275    7.9067 C.ar    1  UNL1        0.0322
     38 C          60.1140   88.8319    8.7763 C.ar    1  UNL1        0.1704
     39 F          59.9226   90.3144    8.9014 F       1  UNL1       -0.2017
     40 C          61.2256   88.1537    9.5210 C.ar    1  UNL1        0.2017
     41 F          62.1458   88.9581   10.3907 F       1  UNL1       -0.1986
@<TRIPOS>BOND
     1    10    11    1
     2    11    12   ar
     3    12    13   ar
     4    13     1    1
     5     1     2   ar
     6     2     3   ar
     7     3     4   ar
     8     4     5   ar
     9     5    24    1
    10    24    26    1
    11    26    27    1
    12    27    28    1
    13    28    29    1
    14    29    30    1
    15    30    31    1
    16    31    32    1
    17     5     6   ar
    18     6     7   ar
    19     7    33    1
    20    33    34    1
    21    34    35   ar
    22    35    36   ar
    23    36    37   ar
    24    37    38   ar
    25    38    39    1
    26    38    40   ar
    27    40    41    1
    28     7     8   ar
    29     8     9   ar
    30    13    14   ar
    31    14    15   ar
    32    15    16   ar
    33    16    17    1
    34    17    18    2
    35    17    19   am
    36    19    21    1
    37    21    22    1
    38    22    23    1
    39    16    11   ar
    40    23    21    1
    41     9     1   ar
    42     9     4   ar
    43    32    27    1
    44    40    34   ar
    45    24    25    1
    46    19    20    1
@<TRIPOS>MOLECULE
*****
 41 46 0 0 0
SMALL
GASTEIGER

@<TRIPOS>ATOM
      1 C          62.4136   90.0763   11.0602 C.ar    1  UNL1        0.0570
      2 C          61.4295   90.6312   10.0735 C.ar    1  UNL1        0.1237
      3 N          60.5651   89.5022    9.5961 N.ar    1  UNL1       -0.1598
      4 N          61.0150   88.2494   10.2876 N.ar    1  UNL1       -0.1820
      5 C          60.5320   86.8315   10.2103 C.ar    1  UNL1        0.2232
      6 N          61.1914   85.7683   11.0379 N.ar    1  UNL1       -0.1609
      7 C          62.3339   86.1231   11.9428 C.ar    1  UNL1        0.3284
      8 N          62.8169   87.5412   12.0201 N.ar    1  UNL1       -0.1746
      9 C          62.1574   88.6043   11.1926 C.ar    1  UNL1        0.1727
     10 C          66.2907   93.5354   11.0063 C.3     1  UNL1        0.0312
     11 C          65.4073   92.5861   11.7600 C.ar    1  UNL1       -0.0175
     12 C          64.3521   91.8059   11.0333 C.ar    1  UNL1       -0.0040
     13 C          63.4687   90.8565   11.7870 C.ar    1  UNL1        0.0042
     14 C          63.6403   90.6872   13.2675 C.ar    1  UNL1        0.0003
     15 C          64.6954   91.4674   13.9942 C.ar    1  UNL1        0.0042
     16 C          65.5789   92.4168   13.2405 C.ar    1  UNL1        0.0494
     17 C          66.6339   93.1969   13.9673 C.2     1  UNL1        0.2455
     18 O          66.6400   94.6953   13.8979 O.2     1  UNL1       -0.2702
     19 N          67.6829   92.4787   14.7635 N.am    1  UNL1       -0.3025
     20 H          67.6788   91.4952   14.8091 H       1  UNL1        0.1497
     21 C          68.7379   93.2588   15.4903 C.3     1  UNL1        0.0720
     22 C          69.2020   94.5345   16.1283 C.3     1  UNL1        0.0213
     23 C          70.1013   93.3342   16.1112 C.3     1  UNL1        0.0213
     24 N          59.3895   86.4766    9.3054 N.pl3   1  UNL1       -0.3028
     25 H          58.4964   86.3075    9.6834 H       1  UNL1        0.1496
     26 C          59.6080   86.3794    7.8245 C.3     1  UNL1        0.0897
     27 C          60.7963   85.6373    7.2888 C.3     1  UNL1        0.0246
     28 C          62.1132   85.7145    8.0029 C.3     1  UNL1        0.0338
     29 C          63.3015   84.9724    7.4672 C.3     1  UNL1        0.1422
     30 O          63.1731   84.1530    6.2174 O.3     1  UNL1       -0.3538
     31 C          61.8562   84.0757    5.5032 C.3     1  UNL1        0.1422
     32 C          60.6679   84.8179    6.0389 C.3     1  UNL1        0.0338
     33 O          62.9933   85.0600   12.7704 O.3     1  UNL1       -0.4198
     34 C          63.0408   83.6452   12.2744 C.ar    1  UNL1        0.1782
     35 C          63.6414   83.3400   10.9343 C.ar    1  UNL1        0.0401
     36 C          63.6890   81.9252   10.4383 C.ar    1  UNL1        0.0056
     37 C          63.1358   80.8155   11.2825 C.ar    1  UNL1        0.0322
     38 C          62.5352   81.1207   12.6227 C.ar    1  UNL1        0.1704
     39 F          61.9820   80.0110   13.4669 F       1  UNL1       -0.2017
     40 C          62.4877   82.5356   13.1186 C.ar    1  UNL1        0.2017
     41 F          61.8870   82.8407   14.4589 F       1  UNL1       -0.1986
@<TRIPOS>BOND
     1    10    11    1
     2    11    12   ar
     3    12    13   ar
     4    13     1    1
     5     1     2   ar
     6     2     3   ar
     7     3     4   ar
     8     4     5   ar
     9     5    24    1
    10    24    26    1
    11    26    27    1
    12    27    28    1
    13    28    29    1
    14    29    30    1
    15    30    31    1
    16    31    32    1
    17     5     6   ar
    18     6     7   ar
    19     7    33    1
    20    33    34    1
    21    34    35   ar
    22    35    36   ar
    23    36    37   ar
    24    37    38   ar
    25    38    39    1
    26    38    40   ar
    27    40    41    1
    28     7     8   ar
    29     8     9   ar
    30    13    14   ar
    31    14    15   ar
    32    15    16   ar
    33    16    17    1
    34    17    18    2
    35    17    19   am
    36    19    21    1
    37    21    22    1
    38    22    23    1
    39    16    11   ar
    40    23    21    1
    41     9     1   ar
    42     9     4   ar
    43    32    27    1
    44    40    34   ar
    45    24    25    1
    46    19    20    1
@<TRIPOS>MOLECULE
*****
 41 46 0 0 0
SMALL
GASTEIGER

@<TRIPOS>ATOM
      1 C          61.8850   89.9323   10.6300 C.ar    1  UNL1        0.0570
      2 C          60.8128   90.7581    9.9830 C.ar    1  UNL1        0.1237
      3 N          60.0701   89.8807    9.0194 N.ar    1  UNL1       -0.1598
      4 N          60.6831   88.5127    9.0709 N.ar    1  UNL1       -0.1820
      5 C          60.3649   87.2421    8.3400 C.ar    1  UNL1        0.2232
      6 N          61.1684   86.0033    8.6046 N.ar    1  UNL1       -0.1609
      7 C          62.2901   86.0352    9.6000 C.ar    1  UNL1        0.3284
      8 N          62.6083   87.3059   10.3309 N.ar    1  UNL1       -0.1746
      9 C          61.8048   88.5446   10.0663 C.ar    1  UNL1        0.1727
     10 C          63.8191   89.7075   15.4475 C.3     1  UNL1        0.0312
     11 C          63.8322   90.2980   14.0687 C.ar    1  UNL1       -0.0175
     12 C          62.8520   89.8200   13.0388 C.ar    1  UNL1       -0.0040
     13 C          62.8652   90.4104   11.6599 C.ar    1  UNL1        0.0042
     14 C          63.8585   91.4788   11.3110 C.ar    1  UNL1        0.0003
     15 C          64.8387   91.9568   12.3409 C.ar    1  UNL1        0.0042
     16 C          64.8256   91.3664   13.7198 C.ar    1  UNL1        0.0494
     17 C          65.8058   91.8444   14.7497 C.2     1  UNL1        0.2455
     18 O          65.3148   92.3591   16.0703 O.2     1  UNL1       -0.2702
     19 N          67.2769   91.8077   14.4590 N.am    1  UNL1       -0.3025
     20 H          67.5991   91.4698   13.5922 H       1  UNL1        0.1497
     21 C          68.2571   92.2857   15.4889 C.3     1  UNL1        0.0720
     22 C          69.1073   93.3794   16.0641 C.3     1  UNL1        0.0213
     23 C          69.1046   92.0198   16.6976 C.3     1  UNL1        0.0213
     24 N          59.2433   87.2102    7.3446 N.pl3   1  UNL1       -0.3028
     25 H          59.1199   86.4225    6.7671 H       1  UNL1        0.1496
     26 C          58.3095   88.3784    7.2292 C.3     1  UNL1        0.0897
     27 C          58.6409   89.5154    6.3087 C.3     1  UNL1        0.0246
     28 C          57.5512   90.4146    5.8048 C.3     1  UNL1        0.0338
     29 C          57.8827   91.5516    4.8843 C.3     1  UNL1        0.1422
     30 O          59.3039   91.7895    4.4677 O.3     1  UNL1       -0.3538
     31 C          60.3937   90.8903    4.9717 C.3     1  UNL1        0.1422
     32 C          60.0622   89.7533    5.8922 C.3     1  UNL1        0.0338
     33 O          63.0935   84.7965    9.8645 O.3     1  UNL1       -0.4198
     34 C          63.0062   84.1165   11.1987 C.ar    1  UNL1        0.1782
     35 C          62.7400   84.9226   12.4353 C.ar    1  UNL1        0.0401
     36 C          62.6527   84.2427   13.7695 C.ar    1  UNL1        0.0056
     37 C          62.8315   82.7566   13.8670 C.ar    1  UNL1        0.0322
     38 C          63.0976   81.9505   12.6304 C.ar    1  UNL1        0.1704
     39 F          63.2764   80.4643   12.7279 F       1  UNL1       -0.2017
     40 C          63.1850   82.6304   11.2962 C.ar    1  UNL1        0.2017
     41 F          63.4511   81.8242   10.0596 F       1  UNL1       -0.1986
@<TRIPOS>BOND
     1    10    11    1
     2    11    12   ar
     3    12    13   ar
     4    13     1    1
     5     1     2   ar
     6     2     3   ar
     7     3     4   ar
     8     4     5   ar
     9     5    24    1
    10    24    26    1
    11    26    27    1
    12    27    28    1
    13    28    29    1
    14    29    30    1
    15    30    31    1
    16    31    32    1
    17     5     6   ar
    18     6     7   ar
    19     7    33    1
    20    33    34    1
    21    34    35   ar
    22    35    36   ar
    23    36    37   ar
    24    37    38   ar
    25    38    39    1
    26    38    40   ar
    27    40    41    1
    28     7     8   ar
    29     8     9   ar
    30    13    14   ar
    31    14    15   ar
    32    15    16   ar
    33    16    17    1
    34    17    18    2
    35    17    19   am
    36    19    21    1
    37    21    22    1
    38    22    23    1
    39    16    11   ar
    40    23    21    1
    41     9     1   ar
    42     9     4   ar
    43    32    27    1
    44    40    34   ar
    45    24    25    1
    46    19    20    1
@<TRIPOS>MOLECULE
*****
 41 46 0 0 0
SMALL
GASTEIGER

@<TRIPOS>ATOM
      1 C          61.6821   89.9360   10.6846 C.ar    1  UNL1        0.0570
      2 C          60.4775   90.7150   10.2466 C.ar    1  UNL1        0.1237
      3 N          59.7352   89.8914    9.2363 N.ar    1  UNL1       -0.1598
      4 N          60.4811   88.6035    9.0499 N.ar    1  UNL1       -0.1820
      5 C          60.2201   87.4092    8.1807 C.ar    1  UNL1        0.2232
      6 N          61.1624   86.2423    8.2067 N.ar    1  UNL1       -0.1609
      7 C          62.3657   86.2699    9.1018 C.ar    1  UNL1        0.3284
      8 N          62.6267   87.4643    9.9710 N.ar    1  UNL1       -0.1746
      9 C          61.6844   88.6310    9.9450 C.ar    1  UNL1        0.1727
     10 C          65.7126   92.9586   11.9572 C.3     1  UNL1        0.0312
     11 C          64.7203   91.8947   12.3227 C.ar    1  UNL1       -0.0175
     12 C          63.6974   91.4473   11.3210 C.ar    1  UNL1       -0.0040
     13 C          62.7050   90.3834   11.6864 C.ar    1  UNL1        0.0042
     14 C          62.7356   89.7670   13.0535 C.ar    1  UNL1        0.0003
     15 C          63.7586   90.2145   14.0552 C.ar    1  UNL1        0.0042
     16 C          64.7509   91.2783   13.6898 C.ar    1  UNL1        0.0494
     17 C          65.7738   91.7257   14.6916 C.2     1  UNL1        0.2455
     18 O          65.3594   92.0346   16.0997 O.2     1  UNL1       -0.2702
     19 N          67.2110   91.8643   14.2852 N.am    1  UNL1       -0.3025
     20 H          67.4830   91.6615   13.3610 H       1  UNL1        0.1497
     21 C          68.2339   92.3117   15.2869 C.3     1  UNL1        0.0720
     22 C          69.2133   93.3383   15.7735 C.3     1  UNL1        0.0213
     23 C          69.0262   92.0599   16.5355 C.3     1  UNL1        0.0213
     24 N          59.0167   87.3816    7.2856 N.pl3   1  UNL1       -0.3028
     25 H          58.7802   86.5562    6.8040 H       1  UNL1        0.1496
     26 C          58.1737   88.6118    7.1242 C.3     1  UNL1        0.0897
     27 C          58.6136   89.7062    6.1975 C.3     1  UNL1        0.0246
     28 C          60.0647   89.8548    5.8478 C.3     1  UNL1        0.0338
     29 C          60.5046   90.9491    4.9211 C.3     1  UNL1        0.1422
     30 O          59.4935   91.8950    4.3441 O.3     1  UNL1       -0.3538
     31 C          58.0423   91.7465    4.6938 C.3     1  UNL1        0.1422
     32 C          57.6024   90.6521    5.6205 C.3     1  UNL1        0.0338
     33 O          63.3080   85.1031    9.1278 O.3     1  UNL1       -0.4198
     34 C          63.4166   84.2540   10.3595 C.ar    1  UNL1        0.1782
     35 C          64.3475   83.0781   10.3802 C.ar    1  UNL1        0.0401
     36 C          64.4562   82.2290   11.6120 C.ar    1  UNL1        0.0056
     37 C          63.6339   82.5559   12.8231 C.ar    1  UNL1        0.0322
     38 C          62.7029   83.7319   12.8025 C.ar    1  UNL1        0.1704
     39 F          61.8805   84.0588   14.0136 F       1  UNL1       -0.2017
     40 C          62.5943   84.5809   11.5707 C.ar    1  UNL1        0.2017
     41 F          61.6633   85.7569   11.5501 F       1  UNL1       -0.1986
@<TRIPOS>BOND
     1    10    11    1
     2    11    12   ar
     3    12    13   ar
     4    13     1    1
     5     1     2   ar
     6     2     3   ar
     7     3     4   ar
     8     4     5   ar
     9     5    24    1
    10    24    26    1
    11    26    27    1
    12    27    28    1
    13    28    29    1
    14    29    30    1
    15    30    31    1
    16    31    32    1
    17     5     6   ar
    18     6     7   ar
    19     7    33    1
    20    33    34    1
    21    34    35   ar
    22    35    36   ar
    23    36    37   ar
    24    37    38   ar
    25    38    39    1
    26    38    40   ar
    27    40    41    1
    28     7     8   ar
    29     8     9   ar
    30    13    14   ar
    31    14    15   ar
    32    15    16   ar
    33    16    17    1
    34    17    18    2
    35    17    19   am
    36    19    21    1
    37    21    22    1
    38    22    23    1
    39    16    11   ar
    40    23    21    1
    41     9     1   ar
    42     9     4   ar
    43    32    27    1
    44    40    34   ar
    45    24    25    1
    46    19    20    1
@<TRIPOS>MOLECULE
*****
 41 46 0 0 0
SMALL
GASTEIGER

@<TRIPOS>ATOM
      1 C          62.1924   87.1257   11.3726 C.ar    1  UNL1        0.0570
      2 C          62.3516   85.6547   11.6188 C.ar    1  UNL1        0.1237
      3 N          63.2173   85.4787   12.8311 N.ar    1  UNL1       -0.1598
      4 N          63.5930   86.8409   13.3341 N.ar    1  UNL1       -0.1820
      5 C          64.4302   87.2860   14.4965 C.ar    1  UNL1        0.2232
      6 N          64.6339   88.7490   14.7575 N.ar    1  UNL1       -0.1609
      7 C          64.0004   89.7670   13.8561 C.ar    1  UNL1        0.3284
      8 N          63.1633   89.3219   12.6937 N.ar    1  UNL1       -0.1746
      9 C          62.9596   87.8589   12.4327 C.ar    1  UNL1        0.1727
     10 C          59.1049   86.6515    7.2202 C.3     1  UNL1        0.0312
     11 C          59.8604   87.5163    8.1851 C.ar    1  UNL1       -0.0175
     12 C          60.6486   86.8887    9.2964 C.ar    1  UNL1       -0.0040
     13 C          61.4042   87.7534   10.2614 C.ar    1  UNL1        0.0042
     14 C          61.3717   89.2459   10.1152 C.ar    1  UNL1        0.0003
     15 C          60.5835   89.8736    9.0039 C.ar    1  UNL1        0.0042
     16 C          59.8279   89.0088    8.0389 C.ar    1  UNL1        0.0494
     17 C          59.0398   89.6366    6.9277 C.2     1  UNL1        0.2455
     18 O          57.6772   89.1113    6.5851 O.2     1  UNL1       -0.2702
     19 N          59.6143   90.7895    6.1591 N.am    1  UNL1       -0.3025
     20 H          60.5086   91.1342    6.3840 H       1  UNL1        0.1497
     21 C          58.8261   91.4172    5.0479 C.3     1  UNL1        0.0720
     22 C          57.5060   91.7929    4.4428 C.3     1  UNL1        0.0213
     23 C          58.7813   92.1288    3.7282 C.3     1  UNL1        0.0213
     24 N          65.0636   86.2680   15.3979 N.pl3   1  UNL1       -0.3028
     25 H          66.0340   86.2922   15.5624 H       1  UNL1        0.1496
     26 C          64.2185   85.2133   16.0487 C.3     1  UNL1        0.0897
     27 C          63.7853   84.0101   15.2647 C.3     1  UNL1        0.0246
     28 C          64.7290   83.3703   14.2900 C.3     1  UNL1        0.0338
     29 C          64.2958   82.1671   13.5060 C.3     1  UNL1        0.1422
     30 O          62.9188   81.6037   13.6967 O.3     1  UNL1       -0.3538
     31 C          61.9750   82.2435   14.6715 C.3     1  UNL1        0.1422
     32 C          62.4082   83.4467   15.4554 C.3     1  UNL1        0.0338
     33 O          64.2041   91.2300   14.1171 O.3     1  UNL1       -0.4198
     34 C          65.5204   91.7221   14.6415 C.ar    1  UNL1        0.1782
     35 C          65.6313   92.2014   16.0585 C.ar    1  UNL1        0.0401
     36 C          66.9476   92.6935   16.5830 C.ar    1  UNL1        0.0056
     37 C          68.1530   92.7065   15.6905 C.ar    1  UNL1        0.0322
     38 C          68.0422   92.2273   14.2734 C.ar    1  UNL1        0.1704
     39 F          69.2476   92.2402   13.3808 F       1  UNL1       -0.2017
     40 C          66.7258   91.7351   13.7490 C.ar    1  UNL1        0.2017
     41 F          66.6150   91.2559   12.3318 F       1  UNL1       -0.1986
@<TRIPOS>BOND
     1    10    11    1
     2    11    12   ar
     3    12    13   ar
     4    13     1    1
     5     1     2   ar
     6     2     3   ar
     7     3     4   ar
     8     4     5   ar
     9     5    24    1
    10    24    26    1
    11    26    27    1
    12    27    28    1
    13    28    29    1
    14    29    30    1
    15    30    31    1
    16    31    32    1
    17     5     6   ar
    18     6     7   ar
    19     7    33    1
    20    33    34    1
    21    34    35   ar
    22    35    36   ar
    23    36    37   ar
    24    37    38   ar
    25    38    39    1
    26    38    40   ar
    27    40    41    1
    28     7     8   ar
    29     8     9   ar
    30    13    14   ar
    31    14    15   ar
    32    15    16   ar
    33    16    17    1
    34    17    18    2
    35    17    19   am
    36    19    21    1
    37    21    22    1
    38    22    23    1
    39    16    11   ar
    40    23    21    1
    41     9     1   ar
    42     9     4   ar
    43    32    27    1
    44    40    34   ar
    45    24    25    1
    46    19    20    1
@<TRIPOS>MOLECULE
*****
 41 46 0 0 0
SMALL
GASTEIGER

@<TRIPOS>ATOM
      1 C          63.1230   90.1167   12.3115 C.ar    1  UNL1        0.0570
      2 C          63.4986   91.5509   12.0832 C.ar    1  UNL1        0.1237
      3 N          63.9321   92.1311   13.3967 N.ar    1  UNL1       -0.1598
      4 N          63.8244   91.0556   14.4368 N.ar    1  UNL1       -0.1820
      5 C          64.1171   91.0491   15.9079 C.ar    1  UNL1        0.2232
      6 N          63.9098   89.7976   16.7084 N.ar    1  UNL1       -0.1609
      7 C          63.4097   88.5525   16.0376 C.ar    1  UNL1        0.3284
      8 N          63.1170   88.5591   14.5664 N.ar    1  UNL1       -0.1746
      9 C          63.3244   89.8106   13.7660 C.ar    1  UNL1        0.1727
     10 C          62.3724   85.2410   10.6794 C.3     1  UNL1        0.0312
     11 C          62.2568   86.7191   10.4522 C.ar    1  UNL1       -0.0175
     12 C          62.7476   87.6789   11.4954 C.ar    1  UNL1       -0.0040
     13 C          62.6322   89.1571   11.2683 C.ar    1  UNL1        0.0042
     14 C          62.0258   89.6756    9.9981 C.ar    1  UNL1        0.0003
     15 C          61.5350   88.7159    8.9550 C.ar    1  UNL1        0.0042
     16 C          61.6505   87.2377    9.1820 C.ar    1  UNL1        0.0494
     17 C          61.1597   86.2780    8.1389 C.2     1  UNL1        0.2455
     18 O          59.6869   86.0757    7.9396 O.2     1  UNL1       -0.2702
     19 N          62.1417   85.5207    7.2950 N.am    1  UNL1       -0.3025
     20 H          63.1084   85.6535    7.4258 H       1  UNL1        0.1497
     21 C          61.6509   84.5611    6.2518 C.3     1  UNL1        0.0720
     22 C          60.7070   83.4758    5.8264 C.3     1  UNL1        0.0213
     23 C          61.7448   83.9843    4.8704 C.3     1  UNL1        0.0213
     24 N          64.6172   92.2941   16.5786 N.pl3   1  UNL1       -0.3028
     25 H          64.0221   92.8063   17.1726 H       1  UNL1        0.1496
     26 C          66.0241   92.7588   16.3444 C.3     1  UNL1        0.0897
     27 C          66.6088   92.7135   14.9638 C.3     1  UNL1        0.0246
     28 C          67.5205   91.5887   14.5720 C.3     1  UNL1        0.0338
     29 C          68.1052   91.5433   13.1914 C.3     1  UNL1        0.1422
     30 O          67.7783   92.6229   12.2026 O.3     1  UNL1       -0.3538
     31 C          66.8666   93.7478   12.5944 C.3     1  UNL1        0.1422
     32 C          66.2819   93.7931   13.9750 C.3     1  UNL1        0.0338
     33 O          63.2023   87.3010   16.8380 O.3     1  UNL1       -0.4198
     34 C          63.2544   85.9622   16.1636 C.ar    1  UNL1        0.1782
     35 C          62.1430   84.9758   16.3679 C.ar    1  UNL1        0.0401
     36 C          62.1951   83.6369   15.6935 C.ar    1  UNL1        0.0056
     37 C          63.3586   83.2845   14.8148 C.ar    1  UNL1        0.0322
     38 C          64.4700   84.2709   14.6106 C.ar    1  UNL1        0.1704
     39 F          65.6335   83.9185   13.7319 F       1  UNL1       -0.2017
     40 C          64.4179   85.6098   15.2850 C.ar    1  UNL1        0.2017
     41 F          65.5293   86.5962   15.0806 F       1  UNL1       -0.1986
@<TRIPOS>BOND
     1    10    11    1
     2    11    12   ar
     3    12    13   ar
     4    13     1    1
     5     1     2   ar
     6     2     3   ar
     7     3     4   ar
     8     4     5   ar
     9     5    24    1
    10    24    26    1
    11    26    27    1
    12    27    28    1
    13    28    29    1
    14    29    30    1
    15    30    31    1
    16    31    32    1
    17     5     6   ar
    18     6     7   ar
    19     7    33    1
    20    33    34    1
    21    34    35   ar
    22    35    36   ar
    23    36    37   ar
    24    37    38   ar
    25    38    39    1
    26    38    40   ar
    27    40    41    1
    28     7     8   ar
    29     8     9   ar
    30    13    14   ar
    31    14    15   ar
    32    15    16   ar
    33    16    17    1
    34    17    18    2
    35    17    19   am
    36    19    21    1
    37    21    22    1
    38    22    23    1
    39    16    11   ar
    40    23    21    1
    41     9     1   ar
    42     9     4   ar
    43    32    27    1
    44    40    34   ar
    45    24    25    1
    46    19    20    1
@<TRIPOS>MOLECULE
*****
 41 46 0 0 0
SMALL
GASTEIGER

@<TRIPOS>ATOM
      1 C          62.9278   89.9652   12.0957 C.ar    1  UNL1        0.0570
      2 C          63.1681   91.4349   11.9162 C.ar    1  UNL1        0.1237
      3 N          63.6264   91.9935   13.2307 N.ar    1  UNL1       -0.1598
      4 N          63.6693   90.8690   14.2226 N.ar    1  UNL1       -0.1820
      5 C          64.0458   90.8246   15.6739 C.ar    1  UNL1        0.2232
      6 N          63.9905   89.5266   16.4237 N.ar    1  UNL1       -0.1609
      7 C          63.5587   88.2730   15.7222 C.ar    1  UNL1        0.3284
      8 N          63.1823   88.3175   14.2708 N.ar    1  UNL1       -0.1746
      9 C          63.2376   89.6154   13.5211 C.ar    1  UNL1        0.1727
     10 C          62.5287   85.1215   10.2574 C.3     1  UNL1        0.0312
     11 C          62.2603   86.5905   10.1166 C.ar    1  UNL1       -0.0175
     12 C          62.7282   87.5434   11.1765 C.ar    1  UNL1       -0.0040
     13 C          62.4599   89.0124   11.0358 C.ar    1  UNL1        0.0042
     14 C          61.7236   89.5288    9.8353 C.ar    1  UNL1        0.0003
     15 C          61.2557   88.5759    8.7755 C.ar    1  UNL1        0.0042
     16 C          61.5240   87.1069    8.9161 C.ar    1  UNL1        0.0494
     17 C          61.0561   86.1541    7.8562 C.2     1  UNL1        0.2455
     18 O          59.5888   85.9842    7.5955 O.2     1  UNL1       -0.2702
     19 N          62.0555   85.3713    7.0572 N.am    1  UNL1       -0.3025
     20 H          63.0185   85.4829    7.2284 H       1  UNL1        0.1497
     21 C          61.5875   84.4186    5.9973 C.3     1  UNL1        0.0720
     22 C          60.6550   83.3341    5.5454 C.3     1  UNL1        0.0213
     23 C          61.7096   83.8529    4.6135 C.3     1  UNL1        0.0213
     24 N          64.4776   92.0782   16.3754 N.pl3   1  UNL1       -0.3028
     25 H          63.8409   92.5680   16.9445 H       1  UNL1        0.1496
     26 C          65.8795   92.5855   16.2097 C.3     1  UNL1        0.0897
     27 C          66.5206   92.5886   14.8537 C.3     1  UNL1        0.0246
     28 C          66.1044   93.6025   13.8296 C.3     1  UNL1        0.0338
     29 C          66.7455   93.6056   12.4735 C.3     1  UNL1        0.1422
     30 O          67.8028   92.5948   12.1415 O.3     1  UNL1       -0.3538
     31 C          68.2191   91.5809   13.1656 C.3     1  UNL1        0.1422
     32 C          67.5780   91.5777   14.5216 C.3     1  UNL1        0.0338
     33 O          63.5034   86.9751   16.4720 O.3     1  UNL1       -0.4198
     34 C          63.6626   85.6771   15.7372 C.ar    1  UNL1        0.1782
     35 C          64.9701   85.3408   15.0835 C.ar    1  UNL1        0.0401
     36 C          65.1293   84.0429   14.3487 C.ar    1  UNL1        0.0056
     37 C          63.9811   83.0812   14.2676 C.ar    1  UNL1        0.0322
     38 C          62.6736   83.4174   14.9213 C.ar    1  UNL1        0.1704
     39 F          61.5253   82.4557   14.8403 F       1  UNL1       -0.2017
     40 C          62.5144   84.7154   15.6561 C.ar    1  UNL1        0.2017
     41 F          61.2068   85.0517   16.3098 F       1  UNL1       -0.1986
@<TRIPOS>BOND
     1    10    11    1
     2    11    12   ar
     3    12    13   ar
     4    13     1    1
     5     1     2   ar
     6     2     3   ar
     7     3     4   ar
     8     4     5   ar
     9     5    24    1
    10    24    26    1
    11    26    27    1
    12    27    28    1
    13    28    29    1
    14    29    30    1
    15    30    31    1
    16    31    32    1
    17     5     6   ar
    18     6     7   ar
    19     7    33    1
    20    33    34    1
    21    34    35   ar
    22    35    36   ar
    23    36    37   ar
    24    37    38   ar
    25    38    39    1
    26    38    40   ar
    27    40    41    1
    28     7     8   ar
    29     8     9   ar
    30    13    14   ar
    31    14    15   ar
    32    15    16   ar
    33    16    17    1
    34    17    18    2
    35    17    19   am
    36    19    21    1
    37    21    22    1
    38    22    23    1
    39    16    11   ar
    40    23    21    1
    41     9     1   ar
    42     9     4   ar
    43    32    27    1
    44    40    34   ar
    45    24    25    1
    46    19    20    1
