@<TRIPOS>MOLECULE
*****
 68 76 0 0 0
SMALL
GASTEIGER

@<TRIPOS>ATOM
      1 N          58.1651   94.9738   -6.0647 N.3     1  UNL1       -0.1862
      2 C          59.3268   94.9581   -7.0135 C.3     1  UNL1        0.1775
      3 C          60.7088   95.2553   -6.5120 C.2     1  UNL1        0.2452
      4 O          61.8705   95.2397   -7.4610 O.2     1  UNL1       -0.2732
      5 N          60.9293   95.5681   -5.0617 N.am    1  UNL1       -0.2541
      6 C          62.3114   95.8653   -4.5602 C.3     1  UNL1        0.1577
      7 C          62.5318   96.1781   -3.1099 C.2     1  UNL1        0.2445
      8 O          63.9139   96.4753   -2.6084 O.2     1  UNL1       -0.2731
      9 N          61.3702   96.1938   -2.1610 N.am    1  UNL1       -0.2705
     10 C          59.9881   95.8966   -2.6625 C.3     1  UNL1        0.1359
     11 C          59.7677   95.5838   -4.1129 C.3     1  UNL1        0.1908
     12 N          58.3856   95.2866   -4.6144 N.am    1  UNL1       -0.1863
     13 C          57.2239   95.3022   -3.6655 C.2     1  UNL1        0.3191
     14 O          57.4444   95.6150   -2.2152 O.2     1  UNL1       -0.2512
     15 N          55.8418   95.0050   -4.1670 N.am    1  UNL1       -0.2836
     16 H          55.6971   94.7997   -5.1189 H       1  UNL1        0.1513
     17 C          56.7830   94.6766   -6.5662 C.3     1  UNL1        0.1188
     18 C          55.4475   92.4493   -6.4912 C.2     1  UNL1       -0.0034
     19 C          56.4695   93.3297   -7.1473 C.2     1  UNL1       -0.0071
     20 C          63.4730   95.8497   -5.5090 C.3     1  UNL1        0.0556
     21 C          64.1318   94.5504   -5.8667 C.ar    1  UNL1       -0.0198
     22 C          63.6788   93.2762   -5.2179 C.ar    1  UNL1       -0.0011
     23 C          64.3377   91.9770   -5.5756 C.ar    1  UNL1        0.0363
     24 C          65.4494   91.9520   -6.5821 C.ar    1  UNL1        0.1337
     25 O          66.1083   90.6527   -6.9398 O.3     1  UNL1       -0.5055
     26 C          65.9025   93.2263   -7.2311 C.ar    1  UNL1        0.0363
     27 C          65.2437   94.5255   -6.8734 C.ar    1  UNL1       -0.0011
     28 H          65.8253   89.8567   -6.5345 H       1  UNL1        0.2922
     29 C          61.5906   96.5066   -0.7107 C.3     1  UNL1        0.1217
     30 C          62.0838   95.4389    0.2204 C.ar    1  UNL1        0.0135
     31 C          63.5309   95.0440    0.2093 C.ar    1  UNL1       -0.0012
     32 C          64.0241   93.9763    1.1402 C.ar    1  UNL1       -0.0002
     33 C          63.0703   93.3035    2.0823 C.ar    1  UNL1        0.0015
     34 C          61.6233   93.6984    2.0934 C.ar    1  UNL1        0.0170
     35 C          60.4574   93.2159    2.9045 C.ar    1  UNL1        0.0186
     36 C          59.2436   93.9853    2.4748 C.ar    1  UNL1        0.0759
     37 N          59.6593   94.9434    1.3982 N.ar    1  UNL1       -0.3242
     38 C          58.7619   95.9092    0.6828 C.3     1  UNL1        0.1305
     39 C          61.1300   94.7661    1.1625 C.ar    1  UNL1        0.0575
     40 C          60.4982   92.1508    3.9601 C.ar    1  UNL1        0.0015
     41 C          59.2662   91.8360    4.7558 C.ar    1  UNL1        0.0002
     42 C          59.3071   90.7710    5.8113 C.ar    1  UNL1        0.0045
     43 C          60.5797   90.0208    6.0710 C.ar    1  UNL1        0.0537
     44 C          61.8117   90.3356    5.2752 C.ar    1  UNL1        0.0045
     45 C          61.7708   91.4006    4.2198 C.ar    1  UNL1        0.0002
     46 C          60.6205   88.9558    7.1265 C.2     1  UNL1        0.2495
     47 O          59.5102   87.9517    7.2220 O.2     1  UNL1       -0.2698
     48 N          61.7715   88.8947    8.0865 N.am    1  UNL1       -0.2792
     49 H          62.5002   89.5537    8.0238 H       1  UNL1        0.1552
     50 C          61.8121   87.8297    9.1419 C.ar    1  UNL1        0.0701
     51 C          62.5141   86.5320    8.8712 C.ar    1  UNL1        0.0191
     52 C          62.5548   85.4669    9.9266 C.ar    1  UNL1        0.0356
     53 C          61.8936   85.6995   11.2527 C.ar    1  UNL1        0.1319
     54 N          61.1916   86.9972   11.5234 N.ar    1  UNL1       -0.2279
     55 C          61.1509   88.0623   10.4681 C.ar    1  UNL1        0.1149
     56 N          61.9342   84.6345   12.3081 N.pl3   1  UNL1       -0.2881
     57 C          61.8390   85.0105   13.7572 C.3     1  UNL1        0.1242
     58 C          61.8797   83.9455   14.8127 C.3     1  UNL1        0.1636
     59 O          62.0155   82.5044   14.4192 O.3     1  UNL1       -0.3501
     60 C          62.1107   82.1283   12.9703 C.3     1  UNL1        0.1636
     61 C          62.0701   83.1934   11.9147 C.3     1  UNL1        0.1242
     62 C          54.6802   95.0207   -3.2182 C.3     1  UNL1        0.1177
     63 C          53.3767   95.6324   -3.6384 C.ar    1  UNL1       -0.0025
     64 C          53.1961   96.1200   -5.0454 C.ar    1  UNL1       -0.0026
     65 C          51.8926   96.7317   -5.4657 C.ar    1  UNL1       -0.0003
     66 C          50.7697   96.8560   -4.4790 C.ar    1  UNL1       -0.0000
     67 C          50.9503   96.3684   -3.0719 C.ar    1  UNL1       -0.0003
     68 C          52.2538   95.7567   -2.6516 C.ar    1  UNL1       -0.0026
@<TRIPOS>BOND
     1    18    19    2
     2    19    17    1
     3    17     1    1
     4     1     2    1
     5     2     3    1
     6     3     4    2
     7     3     5   am
     8     5     6    1
     9     6    20    1
    10    20    21    1
    11    21    22   ar
    12    22    23   ar
    13    23    24   ar
    14    24    25    1
    15    24    26   ar
    16    26    27   ar
    17     6     7    1
    18     7     8    2
    19     7     9   am
    20     9    29    1
    21    29    30    1
    22    30    31   ar
    23    31    32   ar
    24    32    33   ar
    25    33    34   ar
    26    34    35   ar
    27    35    40    1
    28    40    41   ar
    29    41    42   ar
    30    42    43   ar
    31    43    46    1
    32    46    47    2
    33    46    48   am
    34    48    50    1
    35    50    51   ar
    36    51    52   ar
    37    52    53   ar
    38    53    56    1
    39    56    57    1
    40    57    58    1
    41    58    59    1
    42    59    60    1
    43    60    61    1
    44    53    54   ar
    45    54    55   ar
    46    43    44   ar
    47    44    45   ar
    48    35    36   ar
    49    36    37   ar
    50    37    38    1
    51    37    39   ar
    52     9    10    1
    53    11    10    1
    54    11    12    1
    55    12    13   am
    56    13    14    2
    57    13    15   am
    58    15    62    1
    59    62    63    1
    60    63    64   ar
    61    64    65   ar
    62    65    66   ar
    63    66    67   ar
    64    67    68   ar
    65    12     1    1
    66    68    63   ar
    67    11     5    1
    68    27    21   ar
    69    39    30   ar
    70    39    34   ar
    71    45    40   ar
    72    55    50   ar
    73    61    56    1
    74    25    28    1
    75    48    49    1
    76    15    16    1
