@<TRIPOS>MOLECULE
*****
 70 78 0 0 0
SMALL
GASTEIGER

@<TRIPOS>ATOM
      1 N          58.0292   95.1974   -5.9344 N.3     1  UNL1       -0.1862
      2 C          59.2041   95.2161   -6.8667 C.3     1  UNL1        0.1775
      3 C          60.5884   95.4158   -6.3248 C.2     1  UNL1        0.2452
      4 O          61.7634   95.4344   -7.2572 O.2     1  UNL1       -0.2732
      5 N          60.7979   95.5967   -4.8506 N.am    1  UNL1       -0.2541
      6 C          62.1823   95.7963   -4.3087 C.3     1  UNL1        0.1577
      7 C          62.3917   95.9773   -2.8345 C.2     1  UNL1        0.2445
      8 O          63.7761   96.1769   -2.2925 O.2     1  UNL1       -0.2731
      9 N          61.2168   95.9586   -1.9021 N.am    1  UNL1       -0.2705
     10 C          59.8324   95.7589   -2.4440 C.3     1  UNL1        0.1359
     11 C          59.6230   95.5780   -3.9183 C.3     1  UNL1        0.1908
     12 N          58.2386   95.3784   -4.4602 N.am    1  UNL1       -0.1863
     13 C          57.0637   95.3597   -3.5278 C.2     1  UNL1        0.3191
     14 O          57.2732   95.5406   -2.0536 O.2     1  UNL1       -0.2512
     15 N          55.6793   95.1600   -4.0698 N.am    1  UNL1       -0.2836
     16 H          55.5419   95.0413   -5.0374 H       1  UNL1        0.1513
     17 C          56.6448   94.9978   -6.4764 C.3     1  UNL1        0.1188
     18 C          56.7059   92.4038   -6.3438 C.2     1  UNL1       -0.0034
     19 C          56.2368   93.6595   -7.0171 C.2     1  UNL1       -0.0071
     20 C          63.3572   95.8150   -5.2409 C.3     1  UNL1        0.0556
     21 C          64.0079   94.5280   -5.6534 C.ar    1  UNL1       -0.0198
     22 C          65.1273   94.5398   -6.6517 C.ar    1  UNL1       -0.0011
     23 C          65.7780   93.2528   -7.0642 C.ar    1  UNL1        0.0363
     24 C          65.3092   91.9539   -6.4784 C.ar    1  UNL1        0.1337
     25 O          65.9599   90.6669   -6.8909 O.3     1  UNL1       -0.5055
     26 C          64.1897   91.9421   -5.4801 C.ar    1  UNL1        0.0363
     27 C          63.5390   93.2291   -5.0676 C.ar    1  UNL1       -0.0011
     28 H          66.6593   90.6743   -7.5145 H       1  UNL1        0.2922
     29 C          61.4262   96.1395   -0.4279 C.3     1  UNL1        0.1217
     30 C          62.1211   95.0741    0.3673 C.ar    1  UNL1        0.0135
     31 C          63.5575   94.7456    0.0867 C.ar    1  UNL1       -0.0012
     32 C          64.2524   93.6803    0.8818 C.ar    1  UNL1       -0.0002
     33 C          63.5109   92.9435    1.9575 C.ar    1  UNL1        0.0016
     34 C          62.0745   93.2721    2.2381 C.ar    1  UNL1        0.0214
     35 C          61.0933   92.7187    3.2286 C.ar    1  UNL1        0.0722
     36 C          59.7920   93.4421    3.0457 C.ar    1  UNL1        0.0805
     37 N          59.9690   94.4424    1.9422 N.ar    1  UNL1       -0.3241
     38 C          58.9196   95.3828    1.4279 C.3     1  UNL1        0.1305
     39 C          61.3796   94.3374    1.4430 C.ar    1  UNL1        0.0577
     40 C          61.3656   91.6327    4.2269 C.2     1  UNL1        0.2510
     41 O          62.6367   90.8404    4.1452 O.2     1  UNL1       -0.2698
     42 N          60.3669   91.3390    5.3068 N.am    1  UNL1       -0.2791
     43 H          59.5326   91.8590    5.3604 H       1  UNL1        0.1552
     44 C          60.6391   90.2530    6.3050 C.ar    1  UNL1        0.0701
     45 C          61.4043   90.5607    7.5579 C.ar    1  UNL1        0.0191
     46 C          61.6766   89.4747    8.5562 C.ar    1  UNL1        0.0356
     47 C          61.1837   88.0811    8.3016 C.ar    1  UNL1        0.1319
     48 N          60.4184   87.7734    7.0487 N.ar    1  UNL1       -0.2279
     49 C          60.1461   88.8594    6.0504 C.ar    1  UNL1        0.1149
     50 N          61.4559   86.9951    9.2998 N.pl3   1  UNL1       -0.2897
     51 C          62.1546   85.7393    8.8700 C.3     1  UNL1        0.1136
     52 C          62.4269   84.6532    9.8682 C.3     1  UNL1        0.1124
     53 N          62.0005   84.8230   11.2962 N.pl3   1  UNL1       -0.3017
     54 C          61.3018   86.0788   11.7261 C.3     1  UNL1        0.1124
     55 C          61.0295   87.1649   10.7279 C.3     1  UNL1        0.1136
     56 C          62.2727   83.7370   12.2944 C.ar    1  UNL1        0.0824
     57 C          62.1288   82.2983   11.8953 C.ar    1  UNL1        0.0176
     58 C          62.4010   81.2121   12.8936 C.ar    1  UNL1        0.0015
     59 C          62.8172   81.5648   14.2908 C.ar    1  UNL1        0.0032
     60 C          62.9611   83.0036   14.6899 C.ar    1  UNL1        0.0382
     61 C          62.6889   84.0897   13.6917 C.ar    1  UNL1        0.1519
     62 O          62.8328   85.5284   14.0908 O.3     1  UNL1       -0.4702
     63 C          64.1975   86.1198   14.2856 C.3     1  UNL1        0.2525
     64 C          54.5044   95.1413   -3.1375 C.3     1  UNL1        0.1177
     65 C          53.1890   95.7128   -3.5770 C.ar    1  UNL1       -0.0025
     66 C          52.9849   96.1101   -5.0089 C.ar    1  UNL1       -0.0026
     67 C          51.6695   96.6815   -5.4485 C.ar    1  UNL1       -0.0003
     68 C          50.5582   96.8556   -4.4561 C.ar    1  UNL1       -0.0000
     69 C          50.7624   96.4583   -3.0241 C.ar    1  UNL1       -0.0003
     70 C          52.0778   95.8869   -2.5846 C.ar    1  UNL1       -0.0026
@<TRIPOS>BOND
     1    18    19    2
     2    19    17    1
     3    17     1    1
     4     1     2    1
     5     2     3    1
     6     3     4    2
     7     3     5   am
     8     5     6    1
     9     6    20    1
    10    20    21    1
    11    21    22   ar
    12    22    23   ar
    13    23    24   ar
    14    24    25    1
    15    24    26   ar
    16    26    27   ar
    17     6     7    1
    18     7     8    2
    19     7     9   am
    20     9    29    1
    21    29    30    1
    22    30    31   ar
    23    31    32   ar
    24    32    33   ar
    25    33    34   ar
    26    34    35   ar
    27    35    40    1
    28    40    41    2
    29    40    42   am
    30    42    44    1
    31    44    45   ar
    32    45    46   ar
    33    46    47   ar
    34    47    50    1
    35    50    51    1
    36    51    52    1
    37    52    53    1
    38    53    56    1
    39    56    57   ar
    40    57    58   ar
    41    58    59   ar
    42    59    60   ar
    43    60    61   ar
    44    61    62    1
    45    62    63    1
    46    53    54    1
    47    54    55    1
    48    47    48   ar
    49    48    49   ar
    50    35    36   ar
    51    36    37   ar
    52    37    38    1
    53    37    39   ar
    54     9    10    1
    55    10    11    1
    56    11    12    1
    57    12    13   am
    58    13    14    2
    59    13    15   am
    60    15    64    1
    61    64    65    1
    62    65    66   ar
    63    66    67   ar
    64    67    68   ar
    65    68    69   ar
    66    69    70   ar
    67    12     1    1
    68    70    65   ar
    69    11     5    1
    70    27    21   ar
    71    39    30   ar
    72    39    34   ar
    73    49    44   ar
    74    55    50    1
    75    61    56   ar
    76    25    28    1
    77    42    43    1
    78    15    16    1
@<TRIPOS>MOLECULE
*****
 70 78 0 0 0
SMALL
GASTEIGER

@<TRIPOS>ATOM
      1 N          63.2985   96.2950   -5.0515 N.3     1  UNL1       -0.1862
      2 C          62.4735   96.1132   -6.2909 C.3     1  UNL1        0.1775
      3 C          60.9817   95.9954   -6.1883 C.2     1  UNL1        0.2452
      4 O          60.1567   95.8136   -7.4278 O.2     1  UNL1       -0.2732
      5 N          60.3149   96.0595   -4.8462 N.am    1  UNL1       -0.2541
      6 C          58.8230   95.9417   -4.7436 C.3     1  UNL1        0.1577
      7 C          58.1562   96.0057   -3.4015 C.2     1  UNL1        0.2445
      8 O          56.6643   95.8880   -3.2989 O.2     1  UNL1       -0.2731
      9 N          58.9812   96.1876   -2.1620 N.am    1  UNL1       -0.2705
     10 C          60.4730   96.3054   -2.2646 C.3     1  UNL1        0.1359
     11 C          61.1399   96.2413   -3.6068 C.3     1  UNL1        0.1908
     12 N          62.6317   96.3591   -3.7094 N.am    1  UNL1       -0.1863
     13 C          63.4567   96.5409   -2.4699 C.2     1  UNL1        0.3191
     14 O          62.7899   96.6050   -1.1278 O.2     1  UNL1       -0.2512
     15 N          64.9486   96.6587   -2.5725 N.am    1  UNL1       -0.2836
     16 H          65.3862   96.6167   -3.4534 H       1  UNL1        0.1513
     17 C          64.7904   96.4128   -5.1541 C.3     1  UNL1        0.1188
     18 C          66.9215   95.9641   -6.5708 C.2     1  UNL1       -0.0034
     19 C          65.4615   96.2990   -6.4907 C.2     1  UNL1       -0.0071
     20 C          57.9980   95.7598   -5.9830 C.3     1  UNL1        0.0556
     21 C          56.5200   96.0126   -5.9440 C.ar    1  UNL1       -0.0198
     22 C          55.8282   96.6028   -7.1369 C.ar    1  UNL1       -0.0011
     23 C          54.3502   96.8556   -7.0978 C.ar    1  UNL1        0.0363
     24 C          53.5639   96.5182   -5.8658 C.ar    1  UNL1        0.1337
     25 O          52.0859   96.7710   -5.8267 O.3     1  UNL1       -0.5055
     26 C          54.2556   95.9279   -4.6728 C.ar    1  UNL1        0.0363
     27 C          55.7337   95.6751   -4.7119 C.ar    1  UNL1       -0.0011
     28 H          51.6538   97.1396   -6.5719 H       1  UNL1        0.2922
     29 C          58.3144   96.2516   -0.8199 C.3     1  UNL1        0.1217
     30 C          59.0654   95.8390    0.4112 C.ar    1  UNL1        0.0135
     31 C          59.9434   96.8269    1.1205 C.ar    1  UNL1       -0.0012
     32 C          60.6945   96.4143    2.3516 C.ar    1  UNL1       -0.0002
     33 C          60.5675   95.0137    2.8734 C.ar    1  UNL1        0.0016
     34 C          59.6895   94.0258    2.1641 C.ar    1  UNL1        0.0214
     35 C          59.3698   92.5868    2.4416 C.ar    1  UNL1        0.0722
     36 C          58.4211   92.1101    1.3820 C.ar    1  UNL1        0.0805
     37 N          58.1546   93.2544    0.4496 N.ar    1  UNL1       -0.3241
     38 C          57.2610   93.2207   -0.7547 C.3     1  UNL1        0.1305
     39 C          58.9385   94.4384    0.9330 C.ar    1  UNL1        0.0577
     40 C          59.9048   91.7682    3.5791 C.2     1  UNL1        0.2510
     41 O          61.3807   91.5305    3.7029 O.2     1  UNL1       -0.2698
     42 N          58.9640   91.1873    4.5926 N.am    1  UNL1       -0.2791
     43 H          57.9953   91.3433    4.5113 H       1  UNL1        0.1552
     44 C          59.4989   90.3687    5.7301 C.ar    1  UNL1        0.0701
     45 C          59.2567   88.8889    5.7679 C.ar    1  UNL1        0.0191
     46 C          59.7916   88.0702    6.9053 C.ar    1  UNL1        0.0356
     47 C          60.5687   88.7314    8.0048 C.ar    1  UNL1        0.1319
     48 N          60.8108   90.2113    7.9670 N.ar    1  UNL1       -0.2279
     49 C          60.2759   91.0299    6.8296 C.ar    1  UNL1        0.1149
     50 N          61.1036   87.9129    9.1423 N.pl3   1  UNL1       -0.2897
     51 C          62.2492   88.4272    9.9627 C.3     1  UNL1        0.1136
     52 C          62.7842   87.6087   11.1001 C.3     1  UNL1        0.1124
     53 N          62.1736   86.2758   11.4172 N.pl3   1  UNL1       -0.3017
     54 C          61.0280   85.7614   10.5969 C.3     1  UNL1        0.1124
     55 C          60.4929   86.5800    9.4593 C.3     1  UNL1        0.1136
     56 C          62.7085   85.4573   12.5546 C.ar    1  UNL1        0.0824
     57 C          62.6294   85.9813   13.9579 C.ar    1  UNL1        0.0176
     58 C          63.1643   85.1627   15.0955 C.ar    1  UNL1        0.0015
     59 C          63.7783   83.8202   14.8297 C.ar    1  UNL1        0.0032
     60 C          63.8574   83.2963   13.4264 C.ar    1  UNL1        0.0382
     61 C          63.3225   84.1148   12.2889 C.ar    1  UNL1        0.1519
     62 O          63.4016   83.5907   10.8856 O.3     1  UNL1       -0.4702
     63 C          64.2489   82.3914   10.5795 C.3     1  UNL1        0.2525
     64 C          65.7736   96.8405   -1.3331 C.3     1  UNL1        0.1177
     65 C          65.4178   96.0974   -0.0796 C.ar    1  UNL1       -0.0025
     66 C          65.3985   94.5976   -0.0768 C.ar    1  UNL1       -0.0026
     67 C          65.0427   93.8545    1.1767 C.ar    1  UNL1       -0.0003
     68 C          64.7064   94.6112    2.4274 C.ar    1  UNL1       -0.0000
     69 C          64.7257   96.1111    2.4246 C.ar    1  UNL1       -0.0003
     70 C          65.0815   96.8542    1.1711 C.ar    1  UNL1       -0.0026
@<TRIPOS>BOND
     1    18    19    2
     2    19    17    1
     3    17     1    1
     4     1     2    1
     5     2     3    1
     6     3     4    2
     7     3     5   am
     8     5     6    1
     9     6    20    1
    10    20    21    1
    11    21    22   ar
    12    22    23   ar
    13    23    24   ar
    14    24    25    1
    15    24    26   ar
    16    26    27   ar
    17     6     7    1
    18     7     8    2
    19     7     9   am
    20     9    29    1
    21    29    30    1
    22    30    31   ar
    23    31    32   ar
    24    32    33   ar
    25    33    34   ar
    26    34    35   ar
    27    35    40    1
    28    40    41    2
    29    40    42   am
    30    42    44    1
    31    44    45   ar
    32    45    46   ar
    33    46    47   ar
    34    47    50    1
    35    50    51    1
    36    51    52    1
    37    52    53    1
    38    53    56    1
    39    56    57   ar
    40    57    58   ar
    41    58    59   ar
    42    59    60   ar
    43    60    61   ar
    44    61    62    1
    45    62    63    1
    46    53    54    1
    47    54    55    1
    48    47    48   ar
    49    48    49   ar
    50    35    36   ar
    51    36    37   ar
    52    37    38    1
    53    37    39   ar
    54     9    10    1
    55    10    11    1
    56    11    12    1
    57    12    13   am
    58    13    14    2
    59    13    15   am
    60    15    64    1
    61    64    65    1
    62    65    66   ar
    63    66    67   ar
    64    67    68   ar
    65    68    69   ar
    66    69    70   ar
    67    12     1    1
    68    70    65   ar
    69    11     5    1
    70    27    21   ar
    71    39    30   ar
    72    39    34   ar
    73    49    44   ar
    74    55    50    1
    75    61    56   ar
    76    25    28    1
    77    42    43    1
    78    15    16    1
@<TRIPOS>MOLECULE
*****
 70 78 0 0 0
SMALL
GASTEIGER

@<TRIPOS>ATOM
      1 N          62.7084   96.1251   -5.3455 N.3     1  UNL1       -0.1862
      2 C          61.7471   95.9470   -6.4831 C.3     1  UNL1        0.1775
      3 C          60.2919   95.7116   -6.2056 C.2     1  UNL1        0.2452
      4 O          59.3306   95.5335   -7.3432 O.2     1  UNL1       -0.2732
      5 N          59.7980   95.6544   -4.7904 N.am    1  UNL1       -0.2541
      6 C          58.3428   95.4191   -4.5128 C.3     1  UNL1        0.1577
      7 C          57.8489   95.3618   -3.0977 C.2     1  UNL1        0.2445
      8 O          56.3937   95.1265   -2.8201 O.2     1  UNL1       -0.2731
      9 N          58.8102   95.5400   -1.9600 N.am    1  UNL1       -0.2705
     10 C          60.2654   95.7753   -2.2375 C.3     1  UNL1        0.1359
     11 C          60.7593   95.8325   -3.6528 C.3     1  UNL1        0.1908
     12 N          62.2145   96.0678   -3.9304 N.am    1  UNL1       -0.1863
     13 C          63.1758   96.2459   -2.7927 C.2     1  UNL1        0.3191
     14 O          62.6819   96.1887   -1.3775 O.2     1  UNL1       -0.2512
     15 N          64.6310   96.4813   -3.0702 N.am    1  UNL1       -0.2836
     16 H          64.9551   96.5188   -3.9991 H       1  UNL1        0.1513
     17 C          64.1636   96.3604   -5.6231 C.3     1  UNL1        0.1188
     18 C          65.6456   94.3130   -6.2244 C.2     1  UNL1       -0.0034
     19 C          64.8757   95.5285   -6.6482 C.2     1  UNL1       -0.0071
     20 C          57.3815   95.2410   -5.6504 C.3     1  UNL1        0.0556
     21 C          56.7251   93.9113   -5.8764 C.ar    1  UNL1       -0.0198
     22 C          55.7566   93.7358   -7.0083 C.ar    1  UNL1       -0.0011
     23 C          55.1001   92.4061   -7.2344 C.ar    1  UNL1        0.0363
     24 C          55.4121   91.2520   -6.3285 C.ar    1  UNL1        0.1337
     25 O          54.7556   89.9224   -6.5545 O.3     1  UNL1       -0.5055
     26 C          56.3806   91.4275   -5.1965 C.ar    1  UNL1        0.0363
     27 C          57.0370   92.7572   -4.9705 C.ar    1  UNL1       -0.0011
     28 H          54.1506   89.8128   -7.2616 H       1  UNL1        0.2922
     29 C          58.3163   95.4827   -0.5448 C.3     1  UNL1        0.1217
     30 C          59.2448   95.0665    0.5574 C.ar    1  UNL1        0.0135
     31 C          60.4979   95.8488    0.8179 C.ar    1  UNL1       -0.0012
     32 C          61.4263   95.4327    1.9200 C.ar    1  UNL1       -0.0002
     33 C          61.1017   94.2343    2.7617 C.ar    1  UNL1        0.0016
     34 C          59.8486   93.4520    2.5012 C.ar    1  UNL1        0.0214
     35 C          59.2692   92.2358    3.1608 C.ar    1  UNL1        0.0722
     36 C          57.9827   91.9003    2.4664 C.ar    1  UNL1        0.0805
     37 N          57.7670   92.9091    1.3776 N.ar    1  UNL1       -0.3241
     38 C          56.6025   92.9516    0.4331 C.3     1  UNL1        0.1305
     39 C          58.9202   93.8681    1.3990 C.ar    1  UNL1        0.0577
     40 C          59.8708   91.4866    4.3128 C.2     1  UNL1        0.2510
     41 O          61.3052   91.7139    4.6882 O.2     1  UNL1       -0.2698
     42 N          59.0380   90.5101    5.0893 N.am    1  UNL1       -0.2791
     43 H          58.0966   90.3610    4.8429 H       1  UNL1        0.1552
     44 C          59.6395   89.7610    6.2412 C.ar    1  UNL1        0.0701
     45 C          59.7380   88.2649    6.1933 C.ar    1  UNL1        0.0191
     46 C          60.3395   87.5157    7.3452 C.ar    1  UNL1        0.0356
     47 C          60.8424   88.2624    8.5449 C.ar    1  UNL1        0.1319
     48 N          60.7439   89.7584    8.5928 N.ar    1  UNL1       -0.2279
     49 C          60.1425   90.5077    7.4409 C.ar    1  UNL1        0.1149
     50 N          61.4439   87.5132    9.6968 N.pl3   1  UNL1       -0.2897
     51 C          62.5178   88.1510   10.5275 C.3     1  UNL1        0.1136
     52 C          63.1194   87.4019   11.6794 C.3     1  UNL1        0.1124
     53 N          62.6470   86.0149   12.0007 N.pl3   1  UNL1       -0.3017
     54 C          61.5732   85.3771   11.1701 C.3     1  UNL1        0.1124
     55 C          60.9716   86.1263   10.0181 C.3     1  UNL1        0.1136
     56 C          63.2485   85.2657   13.1526 C.ar    1  UNL1        0.0824
     57 C          63.9678   86.0105   14.2379 C.ar    1  UNL1        0.0176
     58 C          64.5694   85.2613   15.3899 C.ar    1  UNL1        0.0015
     59 C          64.4516   83.7675   15.4566 C.ar    1  UNL1        0.0032
     60 C          63.7322   83.0228   14.3712 C.ar    1  UNL1        0.0382
     61 C          63.1307   83.7719   13.2192 C.ar    1  UNL1        0.1519
     62 O          62.4114   83.0271   12.1339 O.3     1  UNL1       -0.4702
     63 C          62.2379   81.5405   12.2325 C.3     1  UNL1        0.2525
     64 C          65.5922   96.6594   -1.9326 C.3     1  UNL1        0.1177
     65 C          65.3200   96.0041   -0.6111 C.ar    1  UNL1       -0.0025
     66 C          65.0724   94.5263   -0.5435 C.ar    1  UNL1       -0.0026
     67 C          64.8002   93.8711    0.7780 C.ar    1  UNL1       -0.0003
     68 C          64.7755   94.6937    2.0321 C.ar    1  UNL1       -0.0000
     69 C          65.0231   96.1716    1.9646 C.ar    1  UNL1       -0.0003
     70 C          65.2953   96.8268    0.6430 C.ar    1  UNL1       -0.0026
@<TRIPOS>BOND
     1    18    19    2
     2    19    17    1
     3    17     1    1
     4     1     2    1
     5     2     3    1
     6     3     4    2
     7     3     5   am
     8     5     6    1
     9     6    20    1
    10    20    21    1
    11    21    22   ar
    12    22    23   ar
    13    23    24   ar
    14    24    25    1
    15    24    26   ar
    16    26    27   ar
    17     6     7    1
    18     7     8    2
    19     7     9   am
    20     9    29    1
    21    29    30    1
    22    30    31   ar
    23    31    32   ar
    24    32    33   ar
    25    33    34   ar
    26    34    35   ar
    27    35    40    1
    28    40    41    2
    29    40    42   am
    30    42    44    1
    31    44    45   ar
    32    45    46   ar
    33    46    47   ar
    34    47    50    1
    35    50    51    1
    36    51    52    1
    37    52    53    1
    38    53    56    1
    39    56    57   ar
    40    57    58   ar
    41    58    59   ar
    42    59    60   ar
    43    60    61   ar
    44    61    62    1
    45    62    63    1
    46    53    54    1
    47    54    55    1
    48    47    48   ar
    49    48    49   ar
    50    35    36   ar
    51    36    37   ar
    52    37    38    1
    53    37    39   ar
    54     9    10    1
    55    10    11    1
    56    11    12    1
    57    12    13   am
    58    13    14    2
    59    13    15   am
    60    15    64    1
    61    64    65    1
    62    65    66   ar
    63    66    67   ar
    64    67    68   ar
    65    68    69   ar
    66    69    70   ar
    67    12     1    1
    68    70    65   ar
    69    11     5    1
    70    27    21   ar
    71    39    30   ar
    72    39    34   ar
    73    49    44   ar
    74    55    50    1
    75    61    56   ar
    76    25    28    1
    77    42    43    1
    78    15    16    1
