@<TRIPOS>MOLECULE
*****
 39 42 0 0 0
SMALL
GASTEIGER

@<TRIPOS>ATOM
      1 C          62.2089   87.8916   10.4067 C.3     1  UNL1        0.1678
      2 C          62.4965   89.1038   11.2421 C.2     1  UNL1        0.2492
      3 O          62.1512   90.4224   10.6162 O.2     1  UNL1       -0.2727
      4 N          63.0836   89.1715   12.6208 N.am    1  UNL1       -0.2501
      5 C          63.5283   88.0439   13.5045 C.ar    1  UNL1        0.0679
      6 C          64.0597   88.5498   14.8127 C.ar    1  UNL1        0.0162
      7 C          64.5584   87.5818   15.8443 C.ar    1  UNL1        0.0014
      8 C          64.5257   86.1079   15.5676 C.ar    1  UNL1        0.0014
      9 C          63.9942   85.6020   14.2593 C.ar    1  UNL1        0.0162
     10 C          63.4955   86.5701   13.2278 C.ar    1  UNL1        0.0676
     11 N          63.0100   85.8598   11.9990 N.am    1  UNL1       -0.2556
     12 C          63.1104   84.3634   12.0298 C.2     1  UNL1        0.2535
     13 O          62.6521   83.5565   10.8513 O.2     1  UNL1       -0.2726
     14 C          62.4374   86.4478   10.7435 C.3     1  UNL1        0.1067
     15 C          62.0409   85.4619    9.6849 C.3     1  UNL1        0.0242
     16 C          60.1368   88.3779    8.9168 C.2     1  UNL1        0.2371
     17 O          59.2542   88.3305   10.1288 O.2     1  UNL1       -0.2737
     18 N          61.6141   88.1584    9.0558 N.am    1  UNL1       -0.2959
     19 H          62.1933   88.1896    8.2603 H       1  UNL1        0.1499
     20 C          59.5420   88.6447    7.5658 C.3     1  UNL1        0.1316
     21 C          58.7843   87.5639    6.8532 C.3     1  UNL1        0.0270
     22 C          58.8788   90.3601    5.7308 C.3     1  UNL1        0.0862
     23 N          59.7048   89.9923    6.9276 N.3     1  UNL1       -0.2902
     24 H          59.5040   90.6857    7.6483 H       1  UNL1        0.1237
     25 C          63.2480   90.5491   13.1912 C.3     1  UNL1        0.1473
     26 C          64.5063   91.3232   12.9315 C.ar    1  UNL1        0.1209
     27 N          65.0615   91.6772   11.5838 N.ar    1  UNL1       -0.0796
     28 O          66.3287   92.4519   11.7933 O.2     1  UNL1       -0.3537
     29 C          66.5567   92.5767   13.2707 C.ar    1  UNL1        0.1766
     30 C          67.6444   93.2355   14.0662 C.ar    1  UNL1        0.0402
     31 C          67.6058   93.1967   15.5652 C.ar    1  UNL1        0.0032
     32 C          66.4795   92.4991   16.2686 C.ar    1  UNL1        0.0002
     33 C          65.3918   91.8403   15.4731 C.ar    1  UNL1        0.0045
     34 C          65.4304   91.8792   13.9741 C.ar    1  UNL1        0.0556
     35 C          63.6691   83.6739   13.2392 C.3     1  UNL1        0.2357
     36 S          63.3908   82.2178   13.4679 S.O2    1  UNL1        0.0007
     37 C          63.1124   80.7618   13.6966 C.3     1  UNL1        0.1766
     38 O          64.6032   81.8593   12.6607 O.2     1  UNL1       -0.1725
     39 O          62.1784   82.5764   14.2750 O.2     1  UNL1       -0.1725
@<TRIPOS>BOND
     1    22    23    1
     2    23    20    1
     3    20    21    1
     4    20    16    1
     5    16    17    2
     6    16    18   am
     7     1    18    1
     8     1     2    1
     9     2     3    2
    10     2     4   am
    11     4    25    1
    12    25    26    1
    13    26    27   ar
    14    27    28   ar
    15    28    29   ar
    16    29    30   ar
    17    30    31   ar
    18    31    32   ar
    19    32    33   ar
    20    33    34   ar
    21     4     5    1
    22     5     6   ar
    23     6     7   ar
    24     7     8   ar
    25     8     9   ar
    26     9    10   ar
    27    10    11    1
    28    11    12   am
    29    12    13    2
    30    12    35    1
    31    35    36    1
    32    36    37    1
    33    36    38    2
    34    36    39    2
    35    11    14    1
    36    14    15    1
    37    14     1    1
    38    34    26   ar
    39    10     5   ar
    40    34    29   ar
    41    23    24    1
    42    18    19    1
@<TRIPOS>MOLECULE
*****
 39 42 0 0 0
SMALL
GASTEIGER

@<TRIPOS>ATOM
      1 C          61.9286   87.1835   10.6042 C.3     1  UNL1        0.1678
      2 C          62.3169   86.1799   11.6492 C.2     1  UNL1        0.2492
      3 O          61.8484   84.7755   11.4087 O.2     1  UNL1       -0.2727
      4 N          63.1117   86.3952   12.9029 N.am    1  UNL1       -0.2501
      5 C          63.7146   87.6672   13.4214 C.ar    1  UNL1        0.0679
      6 C          64.4337   87.4439   14.7186 C.ar    1  UNL1        0.0162
      7 C          65.1097   88.5915   15.4086 C.ar    1  UNL1        0.0014
      8 C          65.0666   89.9623   14.8012 C.ar    1  UNL1        0.0014
      9 C          64.3475   90.1856   13.5039 C.ar    1  UNL1        0.0162
     10 C          63.6715   89.0380   12.8140 C.ar    1  UNL1        0.0676
     11 N          63.0149   89.4755   11.5382 N.am    1  UNL1       -0.2556
     12 C          63.1521   90.9307   11.2014 C.2     1  UNL1        0.2535
     13 O          62.5323   91.4720    9.9472 O.2     1  UNL1       -0.2726
     14 C          62.2392   88.6502   10.5548 C.3     1  UNL1        0.1067
     15 C          61.7033   89.3892    9.3646 C.3     1  UNL1        0.0242
     16 C          61.7997   85.8897    8.3549 C.2     1  UNL1        0.2371
     17 O          63.2818   85.6632    8.4003 O.2     1  UNL1       -0.2737
     18 N          61.1231   86.6499    9.4568 N.am    1  UNL1       -0.2959
     19 H          60.1503   86.7985    9.4271 H       1  UNL1        0.1499
     20 C          60.9942   85.3560    7.2076 C.3     1  UNL1        0.1316
     21 C          61.6647   84.5629    6.1252 C.3     1  UNL1        0.0270
     22 C          58.9737   86.9544    7.5433 C.3     1  UNL1        0.0862
     23 N          59.5183   85.6155    7.1425 N.3     1  UNL1       -0.2902
     24 H          59.2343   85.4596    6.1753 H       1  UNL1        0.1237
     25 C          63.3330   85.1775   13.7504 C.3     1  UNL1        0.1473
     26 C          63.6306   83.8573   13.1033 C.ar    1  UNL1        0.1209
     27 N          64.7236   83.5878   12.1120 N.ar    1  UNL1       -0.0796
     28 O          64.6559   82.1389   11.7299 O.2     1  UNL1       -0.3537
     29 C          63.5210   81.5129   12.4851 C.ar    1  UNL1        0.1766
     30 C          62.9828   80.1130   12.5095 C.ar    1  UNL1        0.0402
     31 C          61.8109   79.7752   13.3826 C.ar    1  UNL1        0.0032
     32 C          61.1773   80.8373   14.2314 C.ar    1  UNL1        0.0002
     33 C          61.7154   82.2371   14.2070 C.ar    1  UNL1        0.0045
     34 C          62.8874   82.5749   13.3339 C.ar    1  UNL1        0.0556
     35 C          63.9091   91.8448   12.1188 C.3     1  UNL1        0.2357
     36 S          65.1520   92.5314   11.6353 S.O2    1  UNL1        0.0007
     37 C          66.3949   93.2180   11.1520 C.3     1  UNL1        0.1766
     38 O          64.9304   91.9666   10.2635 O.2     1  UNL1       -0.1725
     39 O          65.3735   93.0962   13.0072 O.2     1  UNL1       -0.1725
@<TRIPOS>BOND
     1    22    23    1
     2    23    20    1
     3    20    21    1
     4    20    16    1
     5    16    17    2
     6    16    18   am
     7     1    18    1
     8     1     2    1
     9     2     3    2
    10     2     4   am
    11     4    25    1
    12    25    26    1
    13    26    27   ar
    14    27    28   ar
    15    28    29   ar
    16    29    30   ar
    17    30    31   ar
    18    31    32   ar
    19    32    33   ar
    20    33    34   ar
    21     4     5    1
    22     5     6   ar
    23     6     7   ar
    24     7     8   ar
    25     8     9   ar
    26     9    10   ar
    27    10    11    1
    28    11    12   am
    29    12    13    2
    30    12    35    1
    31    35    36    1
    32    36    37    1
    33    36    38    2
    34    36    39    2
    35    11    14    1
    36    14    15    1
    37    14     1    1
    38    34    26   ar
    39    10     5   ar
    40    34    29   ar
    41    23    24    1
    42    18    19    1
@<TRIPOS>MOLECULE
*****
 39 42 0 0 0
SMALL
GASTEIGER

@<TRIPOS>ATOM
      1 C          62.8445   90.3602   12.3740 C.3     1  UNL1        0.1678
      2 C          62.8920   90.0224   13.8348 C.2     1  UNL1        0.2492
      3 O          61.8843   89.0149   14.3029 O.2     1  UNL1       -0.2727
      4 N          63.8142   90.5589   14.8891 N.am    1  UNL1       -0.2501
      5 C          64.9165   91.5658   14.7433 C.ar    1  UNL1        0.0679
      6 C          65.5989   91.8250   16.0537 C.ar    1  UNL1        0.0162
      7 C          66.7336   92.8032   16.1278 C.ar    1  UNL1        0.0014
      8 C          67.1860   93.5221   14.8915 C.ar    1  UNL1        0.0014
      9 C          66.5036   93.2629   13.5811 C.ar    1  UNL1        0.0162
     10 C          65.3689   92.2848   13.5070 C.ar    1  UNL1        0.0676
     11 N          64.8307   92.1744   12.1112 N.am    1  UNL1       -0.2556
     12 C          65.5052   93.0344   11.0838 C.2     1  UNL1        0.2535
     13 O          65.0438   92.9997    9.6569 O.2     1  UNL1       -0.2726
     14 C          63.7072   91.3180   11.6070 C.3     1  UNL1        0.1067
     15 C          63.4068   91.4346   10.1420 C.3     1  UNL1        0.0242
     16 C          61.9614   88.1909   11.2496 C.2     1  UNL1        0.2371
     17 O          63.1767   87.4504   11.7239 O.2     1  UNL1       -0.2737
     18 N          61.7954   89.6458   11.5747 N.am    1  UNL1       -0.2959
     19 H          60.9978   90.1318   11.2634 H       1  UNL1        0.1499
     20 C          60.9123   87.4765   10.4502 C.3     1  UNL1        0.1316
     21 C          61.0079   85.9940   10.2425 C.3     1  UNL1        0.0270
     22 C          59.7986   88.6413    8.4124 C.3     1  UNL1        0.0862
     23 N          59.7677   88.2445    9.8587 N.3     1  UNL1       -0.2902
     24 H          58.9318   87.6749    9.9900 H       1  UNL1        0.1237
     25 C          63.6066   90.0170   16.2723 C.3     1  UNL1        0.1473
     26 C          63.1351   88.6056   16.4619 C.ar    1  UNL1        0.1209
     27 N          61.9637   88.1715   17.2921 N.ar    1  UNL1       -0.0796
     28 O          61.8569   86.6783   17.1979 O.2     1  UNL1       -0.3537
     29 C          62.9623   86.1896   16.3095 C.ar    1  UNL1        0.1766
     30 C          63.3516   84.8138   15.8560 C.ar    1  UNL1        0.0402
     31 C          64.5310   84.6292   14.9476 C.ar    1  UNL1        0.0032
     32 C          65.3209   85.8205   14.4928 C.ar    1  UNL1        0.0002
     33 C          64.9317   87.1962   14.9463 C.ar    1  UNL1        0.0045
     34 C          63.7523   87.3807   15.8547 C.ar    1  UNL1        0.0556
     35 C          66.6411   93.9290   11.4832 C.3     1  UNL1        0.2357
     36 S          66.9565   95.1491   10.6697 S.O2    1  UNL1        0.0007
     37 C          67.2721   96.3691    9.8562 C.3     1  UNL1        0.1766
     38 O          65.9187   95.9228   11.4276 O.2     1  UNL1       -0.1725
     39 O          67.9944   94.3754    9.9119 O.2     1  UNL1       -0.1725
@<TRIPOS>BOND
     1    22    23    1
     2    23    20    1
     3    20    21    1
     4    20    16    1
     5    16    17    2
     6    16    18   am
     7     1    18    1
     8     1     2    1
     9     2     3    2
    10     2     4   am
    11     4    25    1
    12    25    26    1
    13    26    27   ar
    14    27    28   ar
    15    28    29   ar
    16    29    30   ar
    17    30    31   ar
    18    31    32   ar
    19    32    33   ar
    20    33    34   ar
    21     4     5    1
    22     5     6   ar
    23     6     7   ar
    24     7     8   ar
    25     8     9   ar
    26     9    10   ar
    27    10    11    1
    28    11    12   am
    29    12    13    2
    30    12    35    1
    31    35    36    1
    32    36    37    1
    33    36    38    2
    34    36    39    2
    35    11    14    1
    36    14    15    1
    37    14     1    1
    38    34    26   ar
    39    10     5   ar
    40    34    29   ar
    41    23    24    1
    42    18    19    1
@<TRIPOS>MOLECULE
*****
 39 42 0 0 0
SMALL
GASTEIGER

@<TRIPOS>ATOM
      1 C          63.2410   90.0916   14.8331 C.3     1  UNL1        0.1678
      2 C          62.7379   89.9848   13.4239 C.2     1  UNL1        0.2492
      3 O          61.6017   89.0295   13.2091 O.2     1  UNL1       -0.2727
      4 N          63.2210   90.7071   12.2013 N.am    1  UNL1       -0.2501
      5 C          64.3263   91.7145   12.0856 C.ar    1  UNL1        0.0679
      6 C          64.4847   92.1947   10.6734 C.ar    1  UNL1        0.0162
      7 C          65.5384   93.2088   10.3398 C.ar    1  UNL1        0.0014
      8 C          66.4337   93.7427   11.4184 C.ar    1  UNL1        0.0014
      9 C          66.2753   93.2626   12.8306 C.ar    1  UNL1        0.0162
     10 C          65.2216   92.2485   13.1642 C.ar    1  UNL1        0.0676
     11 N          65.2327   91.9069   14.6248 N.am    1  UNL1       -0.2556
     12 C          66.2613   92.6194   15.4520 C.2     1  UNL1        0.2535
     13 O          66.3573   92.3502   16.9246 O.2     1  UNL1       -0.2726
     14 C          64.3513   90.9470   15.3675 C.3     1  UNL1        0.1067
     15 C          64.6149   90.8266   16.8392 C.3     1  UNL1        0.0242
     16 C          63.0805   87.8676   16.1664 C.2     1  UNL1        0.2371
     17 O          64.3196   87.3689   15.4838 O.2     1  UNL1       -0.2737
     18 N          62.5412   89.2289   15.8410 N.am    1  UNL1       -0.2959
     19 H          61.7279   89.5562   16.2891 H       1  UNL1        0.1499
     20 C          62.3807   87.0049   17.1744 C.3     1  UNL1        0.1316
     21 C          62.5824   87.2501   18.6404 C.3     1  UNL1        0.0270
     22 C          62.0471   84.7307   15.9633 C.3     1  UNL1        0.0862
     23 N          61.4791   85.8970   16.7164 N.3     1  UNL1       -0.2902
     24 H          61.0305   85.5185   17.5506 H       1  UNL1        0.1237
     25 C          62.5039   90.3785   10.9254 C.3     1  UNL1        0.1473
     26 C          62.2248   88.9485   10.5688 C.ar    1  UNL1        0.1209
     27 N          62.8978   87.7451   11.1594 N.ar    1  UNL1       -0.0796
     28 O          62.3127   86.5236   10.5146 O.2     1  UNL1       -0.3537
     29 C          61.2779   86.9722    9.5256 C.ar    1  UNL1        0.1766
     30 C          60.3781   86.2096    8.5988 C.ar    1  UNL1        0.0402
     31 C          59.4241   86.9457    7.7055 C.ar    1  UNL1        0.0032
     32 C          59.3698   88.4444    7.7391 C.ar    1  UNL1        0.0002
     33 C          60.2695   89.2069    8.6658 C.ar    1  UNL1        0.0045
     34 C          61.2236   88.4708    9.5591 C.ar    1  UNL1        0.0556
     35 C          67.1939   93.6012   14.8068 C.3     1  UNL1        0.2357
     36 S          68.6231   93.6838   15.2546 S.O2    1  UNL1        0.0007
     37 C          70.0522   93.7664   15.7025 C.3     1  UNL1        0.1766
     38 O          68.9760   92.5508   14.3371 O.2     1  UNL1       -0.1725
     39 O          68.2701   94.8167   16.1721 O.2     1  UNL1       -0.1725
@<TRIPOS>BOND
     1    22    23    1
     2    23    20    1
     3    20    21    1
     4    20    16    1
     5    16    17    2
     6    16    18   am
     7     1    18    1
     8     1     2    1
     9     2     3    2
    10     2     4   am
    11     4    25    1
    12    25    26    1
    13    26    27   ar
    14    27    28   ar
    15    28    29   ar
    16    29    30   ar
    17    30    31   ar
    18    31    32   ar
    19    32    33   ar
    20    33    34   ar
    21     4     5    1
    22     5     6   ar
    23     6     7   ar
    24     7     8   ar
    25     8     9   ar
    26     9    10   ar
    27    10    11    1
    28    11    12   am
    29    12    13    2
    30    12    35    1
    31    35    36    1
    32    36    37    1
    33    36    38    2
    34    36    39    2
    35    11    14    1
    36    14    15    1
    37    14     1    1
    38    34    26   ar
    39    10     5   ar
    40    34    29   ar
    41    23    24    1
    42    18    19    1
@<TRIPOS>MOLECULE
*****
 39 42 0 0 0
SMALL
GASTEIGER

@<TRIPOS>ATOM
      1 C          61.3645   94.9156   -0.9728 C.3     1  UNL1        0.1678
      2 C          62.0109   95.7255   -2.0573 C.2     1  UNL1        0.2492
      3 O          63.2695   96.4442   -1.6707 O.2     1  UNL1       -0.2727
      4 N          61.5651   95.9118   -3.4773 N.am    1  UNL1       -0.2501
      5 C          60.3628   95.3342   -4.1636 C.ar    1  UNL1        0.0679
      6 C          60.2853   95.7738   -5.5956 C.ar    1  UNL1        0.0162
      7 C          59.1544   95.3068   -6.4633 C.ar    1  UNL1        0.0014
      8 C          58.1010   94.4003   -5.8990 C.ar    1  UNL1        0.0014
      9 C          58.1785   93.9607   -4.4670 C.ar    1  UNL1        0.0162
     10 C          59.3094   94.4277   -3.5993 C.ar    1  UNL1        0.0676
     11 N          59.1981   93.8748   -2.2093 N.am    1  UNL1       -0.2556
     12 C          58.0159   92.9874   -1.9546 C.2     1  UNL1        0.2535
     13 O          57.8108   92.3824   -0.5974 O.2     1  UNL1       -0.2726
     14 C          60.1127   94.0919   -1.0404 C.3     1  UNL1        0.1067
     15 C          59.7241   93.3930    0.2286 C.3     1  UNL1        0.0242
     16 C          63.3326   94.1567    0.5439 C.2     1  UNL1        0.2371
     17 O          63.9055   93.3661   -0.5949 O.2     1  UNL1       -0.2737
     18 N          62.0622   94.9314    0.3550 N.am    1  UNL1       -0.2959
     19 H          61.6863   95.4503    1.1025 H       1  UNL1        0.1499
     20 C          64.0303   94.1725    1.8717 C.3     1  UNL1        0.1316
     21 C          64.8827   95.3451    2.2571 C.3     1  UNL1        0.0270
     22 C          62.8455   91.9598    2.5426 C.3     1  UNL1        0.0862
     23 N          63.8757   93.0158    2.8140 N.3     1  UNL1       -0.2902
     24 H          64.7789   92.5433    2.8510 H       1  UNL1        0.1237
     25 C          62.4368   96.7921   -4.3230 C.3     1  UNL1        0.1473
     26 C          63.4573   96.1814   -5.2371 C.ar    1  UNL1        0.1209
     27 N          64.1077   96.8560   -6.4084 N.ar    1  UNL1       -0.0796
     28 O          65.0589   95.8804   -7.0357 O.2     1  UNL1       -0.3537
     29 C          64.9964   94.6029   -6.2520 C.ar    1  UNL1        0.1766
     30 C          65.7129   93.2942   -6.4071 C.ar    1  UNL1        0.0402
     31 C          65.4396   92.1716   -5.4505 C.ar    1  UNL1        0.0032
     32 C          64.4497   92.3577   -4.3389 C.ar    1  UNL1        0.0002
     33 C          63.7332   93.6663   -4.1839 C.ar    1  UNL1        0.0045
     34 C          64.0065   94.7889   -5.1405 C.ar    1  UNL1        0.0556
     35 C          57.0386   92.7051   -3.0571 C.3     1  UNL1        0.2357
     36 S          56.2581   91.4242   -3.0575 S.O2    1  UNL1        0.0007
     37 C          55.4776   90.1433   -3.0581 C.3     1  UNL1        0.1766
     38 O          55.3891   91.9533   -1.9553 O.2     1  UNL1       -0.1725
     39 O          57.1271   90.8951   -4.1598 O.2     1  UNL1       -0.1725
@<TRIPOS>BOND
     1    22    23    1
     2    23    20    1
     3    20    21    1
     4    20    16    1
     5    16    17    2
     6    16    18   am
     7     1    18    1
     8     1     2    1
     9     2     3    2
    10     2     4   am
    11     4    25    1
    12    25    26    1
    13    26    27   ar
    14    27    28   ar
    15    28    29   ar
    16    29    30   ar
    17    30    31   ar
    18    31    32   ar
    19    32    33   ar
    20    33    34   ar
    21     4     5    1
    22     5     6   ar
    23     6     7   ar
    24     7     8   ar
    25     8     9   ar
    26     9    10   ar
    27    10    11    1
    28    11    12   am
    29    12    13    2
    30    12    35    1
    31    35    36    1
    32    36    37    1
    33    36    38    2
    34    36    39    2
    35    11    14    1
    36    14    15    1
    37    14     1    1
    38    34    26   ar
    39    10     5   ar
    40    34    29   ar
    41    23    24    1
    42    18    19    1
@<TRIPOS>MOLECULE
*****
 39 42 0 0 0
SMALL
GASTEIGER

@<TRIPOS>ATOM
      1 C          62.1087   88.0941   10.3544 C.3     1  UNL1        0.1678
      2 C          62.0415   86.7429   11.0023 C.2     1  UNL1        0.2492
      3 O          61.3108   85.6858   10.2286 O.2     1  UNL1       -0.2727
      4 N          62.6084   86.3091   12.3215 N.am    1  UNL1       -0.2501
      5 C          63.3825   87.1192   13.3187 C.ar    1  UNL1        0.0679
      6 C          63.7657   86.2972   14.5135 C.ar    1  UNL1        0.0162
      7 C          64.5472   86.9193   15.6324 C.ar    1  UNL1        0.0014
      8 C          64.9456   88.3635   15.5567 C.ar    1  UNL1        0.0014
      9 C          64.5625   89.1855   14.3619 C.ar    1  UNL1        0.0162
     10 C          63.7809   88.5634   13.2429 C.ar    1  UNL1        0.0676
     11 N          63.5036   89.5540   12.1512 N.am    1  UNL1       -0.2556
     12 C          64.0416   90.9362   12.3746 C.2     1  UNL1        0.2535
     13 O          63.8197   92.0031   11.3438 O.2     1  UNL1       -0.2726
     14 C          62.7594   89.3452   10.8657 C.3     1  UNL1        0.1067
     15 C          62.6516   90.5462    9.9736 C.3     1  UNL1        0.0242
     16 C          60.0787   88.8388    8.9141 C.2     1  UNL1        0.2371
     17 O          59.3935   89.3528   10.1456 O.2     1  UNL1       -0.2737
     18 N          61.4363   88.2095    9.0185 N.am    1  UNL1       -0.2959
     19 H          61.8860   87.8723    8.2103 H       1  UNL1        0.1499
     20 C          59.4063   88.9542    7.5782 C.3     1  UNL1        0.1316
     21 C          59.5874   90.1930    6.7520 C.3     1  UNL1        0.0270
     22 C          58.8260   86.4228    7.5074 C.3     1  UNL1        0.0862
     23 N          58.5528   87.8309    7.0686 N.3     1  UNL1       -0.2902
     24 H          57.5931   88.0433    7.3411 H       1  UNL1        0.1237
     25 C          62.3696   84.8755   12.6926 C.3     1  UNL1        0.1473
     26 C          62.8476   83.7773   11.7895 C.ar    1  UNL1        0.1209
     27 N          63.5759   83.9581   10.4907 N.ar    1  UNL1       -0.0796
     28 O          63.8596   82.5981    9.9251 O.2     1  UNL1       -0.3537
     29 C          63.3067   81.5768   10.8744 C.ar    1  UNL1        0.1766
     30 C          63.2919   80.0772   10.8384 C.ar    1  UNL1        0.0402
     31 C          62.6517   79.3065   11.9547 C.ar    1  UNL1        0.0032
     32 C          62.0263   80.0354   13.1070 C.ar    1  UNL1        0.0002
     33 C          62.0410   81.5348   13.1430 C.ar    1  UNL1        0.0045
     34 C          62.6812   82.3055   12.0266 C.ar    1  UNL1        0.0556
     35 C          64.8017   91.2517   13.6289 C.3     1  UNL1        0.2357
     36 S          65.7811   92.3876   13.6466 S.O2    1  UNL1        0.0007
     37 C          66.7605   93.5235   13.6645 C.3     1  UNL1        0.1766
     38 O          66.2383   92.0149   12.2675 O.2     1  UNL1       -0.1725
     39 O          65.3239   92.7602   15.0258 O.2     1  UNL1       -0.1725
@<TRIPOS>BOND
     1    22    23    1
     2    23    20    1
     3    20    21    1
     4    20    16    1
     5    16    17    2
     6    16    18   am
     7     1    18    1
     8     1     2    1
     9     2     3    2
    10     2     4   am
    11     4    25    1
    12    25    26    1
    13    26    27   ar
    14    27    28   ar
    15    28    29   ar
    16    29    30   ar
    17    30    31   ar
    18    31    32   ar
    19    32    33   ar
    20    33    34   ar
    21     4     5    1
    22     5     6   ar
    23     6     7   ar
    24     7     8   ar
    25     8     9   ar
    26     9    10   ar
    27    10    11    1
    28    11    12   am
    29    12    13    2
    30    12    35    1
    31    35    36    1
    32    36    37    1
    33    36    38    2
    34    36    39    2
    35    11    14    1
    36    14    15    1
    37    14     1    1
    38    34    26   ar
    39    10     5   ar
    40    34    29   ar
    41    23    24    1
    42    18    19    1
@<TRIPOS>MOLECULE
*****
 39 42 0 0 0
SMALL
GASTEIGER

@<TRIPOS>ATOM
      1 C          60.8384   93.1303   -0.8050 C.3     1  UNL1        0.1678
      2 C          61.9993   93.6970   -1.5673 C.2     1  UNL1        0.2492
      3 O          63.3583   93.3579   -1.0304 O.2     1  UNL1       -0.2727
      4 N          61.9809   94.5578   -2.7955 N.am    1  UNL1       -0.2501
      5 C          60.7972   95.0647   -3.5648 C.ar    1  UNL1        0.0679
      6 C          61.2217   95.8986   -4.7372 C.ar    1  UNL1        0.0162
      7 C          60.1883   96.5037   -5.6405 C.ar    1  UNL1        0.0014
      8 C          58.7305   96.2748   -5.3715 C.ar    1  UNL1        0.0014
      9 C          58.3060   95.4409   -4.1992 C.ar    1  UNL1        0.0162
     10 C          59.3393   94.8359   -3.2958 C.ar    1  UNL1        0.0676
     11 N          58.7053   94.0437   -2.1911 N.am    1  UNL1       -0.2556
     12 C          57.2058   94.0054   -2.1956 C.2     1  UNL1        0.2535
     13 O          56.4719   93.2408   -1.1341 O.2     1  UNL1       -0.2726
     14 C          59.3723   93.2846   -1.0826 C.3     1  UNL1        0.1067
     15 C          58.4518   92.5877   -0.1251 C.3     1  UNL1        0.0242
     16 C          61.5150   92.9647    1.6979 C.2     1  UNL1        0.2371
     17 O          61.4885   94.4608    1.8041 O.2     1  UNL1       -0.2737
     18 N          61.1899   92.2995    0.3934 N.am    1  UNL1       -0.2959
     19 H          61.2073   91.3177    0.3238 H       1  UNL1        0.1499
     20 C          61.8665   92.1339    2.8964 C.3     1  UNL1        0.1316
     21 C          63.1628   91.3800    2.9321 C.3     1  UNL1        0.0270
     22 C          59.4918   92.4782    3.8925 C.3     1  UNL1        0.0862
     23 N          60.9218   92.0571    4.0589 N.3     1  UNL1       -0.2902
     24 H          60.9086   91.0838    4.3638 H       1  UNL1        0.1237
     25 C          63.3240   94.9658   -3.3245 C.3     1  UNL1        0.1473
     26 C          64.0399   94.0898   -4.3095 C.ar    1  UNL1        0.1209
     27 N          63.8956   92.6019   -4.4336 N.ar    1  UNL1       -0.0796
     28 O          64.7922   92.1404   -5.5441 O.2     1  UNL1       -0.3537
     29 C          65.4906   93.3430   -6.1062 C.ar    1  UNL1        0.1766
     30 C          66.4899   93.4967   -7.2143 C.ar    1  UNL1        0.0402
     31 C          67.0242   94.8552   -7.5593 C.ar    1  UNL1        0.0032
     32 C          66.5591   96.0599   -6.7962 C.ar    1  UNL1        0.0002
     33 C          65.5599   95.9063   -5.6882 C.ar    1  UNL1        0.0045
     34 C          65.0256   94.5478   -5.3432 C.ar    1  UNL1        0.0556
     35 C          56.4401   94.7319   -3.2615 C.3     1  UNL1        0.2357
     36 S          55.3043   95.6364   -2.8846 S.O2    1  UNL1        0.0007
     37 C          54.1687   96.5408   -2.5077 C.3     1  UNL1        0.1766
     38 O          54.6046   95.2915   -4.1658 O.2     1  UNL1       -0.1725
     39 O          56.0042   95.9812   -1.6035 O.2     1  UNL1       -0.1725
@<TRIPOS>BOND
     1    22    23    1
     2    23    20    1
     3    20    21    1
     4    20    16    1
     5    16    17    2
     6    16    18   am
     7     1    18    1
     8     1     2    1
     9     2     3    2
    10     2     4   am
    11     4    25    1
    12    25    26    1
    13    26    27   ar
    14    27    28   ar
    15    28    29   ar
    16    29    30   ar
    17    30    31   ar
    18    31    32   ar
    19    32    33   ar
    20    33    34   ar
    21     4     5    1
    22     5     6   ar
    23     6     7   ar
    24     7     8   ar
    25     8     9   ar
    26     9    10   ar
    27    10    11    1
    28    11    12   am
    29    12    13    2
    30    12    35    1
    31    35    36    1
    32    36    37    1
    33    36    38    2
    34    36    39    2
    35    11    14    1
    36    14    15    1
    37    14     1    1
    38    34    26   ar
    39    10     5   ar
    40    34    29   ar
    41    23    24    1
    42    18    19    1
@<TRIPOS>MOLECULE
*****
 39 42 0 0 0
SMALL
GASTEIGER

@<TRIPOS>ATOM
      1 C          60.6775   93.6428   -0.9610 C.3     1  UNL1        0.1678
      2 C          61.8427   94.5066   -1.3434 C.2     1  UNL1        0.2492
      3 O          62.9820   94.5317   -0.3681 O.2     1  UNL1       -0.2727
      4 N          62.0192   95.3485   -2.5722 N.am    1  UNL1       -0.2501
      5 C          61.0741   95.5347   -3.7221 C.ar    1  UNL1        0.0679
      6 C          61.6406   96.4670   -4.7516 C.ar    1  UNL1        0.0162
      7 C          60.8520   96.7895   -5.9862 C.ar    1  UNL1        0.0014
      8 C          59.4970   96.1796   -6.1912 C.ar    1  UNL1        0.0014
      9 C          58.9306   95.2473   -5.1617 C.ar    1  UNL1        0.0162
     10 C          59.7191   94.9249   -3.9272 C.ar    1  UNL1        0.0676
     11 N          58.9746   93.9782   -3.0330 N.am    1  UNL1       -0.2556
     12 C          57.6250   93.5448   -3.5238 C.2     1  UNL1        0.2535
     13 O          56.7974   92.5989   -2.7051 O.2     1  UNL1       -0.2726
     14 C          59.4011   93.4076   -1.7130 C.3     1  UNL1        0.1067
     15 C          58.4217   92.4791   -1.0583 C.3     1  UNL1        0.0242
     16 C          60.3766   93.5860    1.6189 C.2     1  UNL1        0.2371
     17 O          59.8193   94.9782    1.5845 O.2     1  UNL1       -0.2737
     18 N          60.8058   92.9183    0.3461 N.am    1  UNL1       -0.2959
     19 H          61.1716   92.0046    0.3687 H       1  UNL1        0.1499
     20 C          60.5049   92.8616    2.9261 C.3     1  UNL1        0.1316
     21 C          61.7476   92.0787    3.2310 C.3     1  UNL1        0.0270
     22 C          59.1405   91.7557    4.8406 C.3     1  UNL1        0.0862
     23 N          59.3905   92.9199    3.9284 N.3     1  UNL1       -0.2902
     24 H          59.5726   93.7273    4.5245 H       1  UNL1        0.1237
     25 C          63.3117   96.1043   -2.6632 C.3     1  UNL1        0.1473
     26 C          64.2504   95.8501   -3.8052 C.ar    1  UNL1        0.1209
     27 N          65.1706   96.8560   -4.4308 N.ar    1  UNL1       -0.0796
     28 O          65.9227   96.1729   -5.5343 O.2     1  UNL1       -0.3537
     29 C          65.4673   94.7447   -5.5907 C.ar    1  UNL1        0.1766
     30 C          65.8603   93.6002   -6.4771 C.ar    1  UNL1        0.0402
     31 C          65.2197   92.2562   -6.2947 C.ar    1  UNL1        0.0032
     32 C          64.1862   92.0567   -5.2260 C.ar    1  UNL1        0.0002
     33 C          63.7933   93.2012   -4.3397 C.ar    1  UNL1        0.0045
     34 C          64.4338   94.5452   -4.5220 C.ar    1  UNL1        0.0556
     35 C          57.1030   94.0573   -4.8334 C.3     1  UNL1        0.2357
     36 S          56.3150   93.1517   -5.7328 S.O2    1  UNL1        0.0007
     37 C          55.5270   92.2462   -6.6321 C.3     1  UNL1        0.1766
     38 O          57.4068   92.1260   -5.6566 O.2     1  UNL1       -0.1725
     39 O          55.2232   94.1775   -5.8089 O.2     1  UNL1       -0.1725
@<TRIPOS>BOND
     1    22    23    1
     2    23    20    1
     3    20    21    1
     4    20    16    1
     5    16    17    2
     6    16    18   am
     7     1    18    1
     8     1     2    1
     9     2     3    2
    10     2     4   am
    11     4    25    1
    12    25    26    1
    13    26    27   ar
    14    27    28   ar
    15    28    29   ar
    16    29    30   ar
    17    30    31   ar
    18    31    32   ar
    19    32    33   ar
    20    33    34   ar
    21     4     5    1
    22     5     6   ar
    23     6     7   ar
    24     7     8   ar
    25     8     9   ar
    26     9    10   ar
    27    10    11    1
    28    11    12   am
    29    12    13    2
    30    12    35    1
    31    35    36    1
    32    36    37    1
    33    36    38    2
    34    36    39    2
    35    11    14    1
    36    14    15    1
    37    14     1    1
    38    34    26   ar
    39    10     5   ar
    40    34    29   ar
    41    23    24    1
    42    18    19    1
