@<TRIPOS>MOLECULE
*****
 63 69 0 0 0
SMALL
GASTEIGER

@<TRIPOS>ATOM
      1 N          65.3898   89.2281   14.4963 N.3     1  UNL1       -0.1862
      2 C          65.6004   87.9736   15.2912 C.3     1  UNL1        0.1775
      3 C          64.8059   86.7418   14.9729 C.2     1  UNL1        0.2452
      4 O          65.0166   85.4872   15.7678 O.2     1  UNL1       -0.2732
      5 N          63.8008   86.7644   13.8597 N.am    1  UNL1       -0.2541
      6 C          63.0064   85.5325   13.5413 C.3     1  UNL1        0.1577
      7 C          62.0013   85.5552   12.4282 C.2     1  UNL1        0.2445
      8 O          61.2068   84.3233   12.1098 O.2     1  UNL1       -0.2731
      9 N          61.7906   86.8097   11.6333 N.am    1  UNL1       -0.2705
     10 C          62.5851   88.0416   11.9516 C.3     1  UNL1        0.1359
     11 C          63.5902   88.0189   13.0648 C.3     1  UNL1        0.1908
     12 N          64.3847   89.2508   13.3832 N.am    1  UNL1       -0.1863
     13 C          64.1740   90.5053   12.5883 C.2     1  UNL1        0.3191
     14 O          63.1689   90.5280   11.4751 O.2     1  UNL1       -0.2512
     15 N          64.9685   91.7372   12.9066 N.am    1  UNL1       -0.2836
     16 H          65.6281   91.7223   13.6372 H       1  UNL1        0.1513
     17 C          66.1842   90.4600   14.8147 C.3     1  UNL1        0.1188
     18 C          66.4194   92.7164   16.0808 C.2     1  UNL1       -0.0034
     19 C          65.5897   91.5339   15.6768 C.2     1  UNL1       -0.0071
     20 C          63.2170   84.2781   14.3362 C.3     1  UNL1        0.0556
     21 C          63.0542   82.9387   13.6808 C.ar    1  UNL1       -0.0198
     22 C          62.0793   81.9444   14.2383 C.ar    1  UNL1       -0.0011
     23 C          61.9165   80.6050   13.5829 C.ar    1  UNL1        0.0363
     24 C          62.7286   80.2599   12.3699 C.ar    1  UNL1        0.1337
     25 O          62.5658   78.9206   11.7145 O.3     1  UNL1       -0.5055
     26 C          63.7036   81.2542   11.8123 C.ar    1  UNL1        0.0363
     27 C          63.8664   82.5936   12.4677 C.ar    1  UNL1       -0.0011
     28 H          61.9568   78.2994   12.0628 H       1  UNL1        0.2922
     29 C          60.7855   86.8324   10.5201 C.3     1  UNL1        0.1217
     30 C          60.3771   88.1380    9.9048 C.ar    1  UNL1        0.0135
     31 C          60.0914   89.3226   10.7795 C.ar    1  UNL1       -0.0012
     32 C          59.6829   90.6281   10.1643 C.ar    1  UNL1       -0.0002
     33 C          59.5602   90.7492    8.6743 C.ar    1  UNL1        0.0016
     34 C          59.8459   89.5647    7.7995 C.ar    1  UNL1        0.0214
     35 C          59.8092   89.3842    6.3108 C.ar    1  UNL1        0.0722
     36 C          60.1950   87.9670    6.0061 C.ar    1  UNL1        0.0805
     37 N          60.4700   87.2717    7.3063 N.ar    1  UNL1       -0.3241
     38 C          60.8876   85.8403    7.4696 C.3     1  UNL1        0.1305
     39 C          60.2544   88.2591    8.4147 C.ar    1  UNL1        0.0577
     40 C          59.4499   90.4362    5.3037 C.2     1  UNL1        0.2510
     41 O          58.0118   90.7981    5.0778 O.2     1  UNL1       -0.2698
     42 N          60.5286   91.1263    4.5226 N.am    1  UNL1       -0.2791
     43 H          61.4724   90.8888    4.6709 H       1  UNL1        0.1552
     44 C          60.1693   92.1783    3.5155 C.ar    1  UNL1        0.0701
     45 C          59.9408   91.7979    2.0827 C.ar    1  UNL1        0.0191
     46 C          59.5815   92.8498    1.0756 C.ar    1  UNL1        0.0354
     47 C          59.4508   94.2822    1.5013 C.ar    1  UNL1        0.1286
     48 N          59.6793   94.6626    2.9341 N.ar    1  UNL1       -0.2281
     49 C          60.0386   93.6107    3.9413 C.ar    1  UNL1        0.1149
     50 N          59.0915   95.3341    0.4942 N.pl3   1  UNL1       -0.3169
     51 H          59.0316   96.2778    0.7682 H       1  UNL1        0.1482
     52 C          58.8236   94.9483   -0.9304 C.3     1  UNL1        0.1057
     53 C          57.4668   95.1781   -1.5273 C.3     1  UNL1        0.0936
     54 N          56.4568   94.0691   -1.5433 N.3     1  UNL1       -0.2689
     55 C          55.0184   94.3691   -1.8449 C.3     1  UNL1        0.0897
     56 C          56.8853   92.6603   -1.2577 C.3     1  UNL1        0.0897
     57 C          64.7578   92.9917   12.1118 C.3     1  UNL1        0.1177
     58 C          65.7990   93.4412   11.1300 C.ar    1  UNL1       -0.0025
     59 C          65.8368   94.8713   10.6790 C.ar    1  UNL1       -0.0026
     60 C          66.8780   95.3209    9.6973 C.ar    1  UNL1       -0.0003
     61 C          67.8814   94.3404    9.1665 C.ar    1  UNL1       -0.0000
     62 C          67.8437   92.9102    9.6176 C.ar    1  UNL1       -0.0003
     63 C          66.8025   92.4607   10.5993 C.ar    1  UNL1       -0.0026
@<TRIPOS>BOND
     1    18    19    2
     2    19    17    1
     3    17     1    1
     4     1     2    1
     5     2     3    1
     6     3     4    2
     7     3     5   am
     8     5     6    1
     9     6    20    1
    10    20    21    1
    11    21    22   ar
    12    22    23   ar
    13    23    24   ar
    14    24    25    1
    15    24    26   ar
    16    26    27   ar
    17     6     7    1
    18     7     8    2
    19     7     9   am
    20     9    29    1
    21    29    30    1
    22    30    31   ar
    23    31    32   ar
    24    32    33   ar
    25    33    34   ar
    26    34    35   ar
    27    35    40    1
    28    40    41    2
    29    40    42   am
    30    42    44    1
    31    44    45   ar
    32    45    46   ar
    33    46    47   ar
    34    47    50    1
    35    50    52    1
    36    52    53    1
    37    53    54    1
    38    54    55    1
    39    54    56    1
    40    47    48   ar
    41    48    49   ar
    42    35    36   ar
    43    36    37   ar
    44    37    38    1
    45    37    39   ar
    46     9    10    1
    47    11    10    1
    48    11    12    1
    49    12    13   am
    50    13    14    2
    51    13    15   am
    52    15    57    1
    53    57    58    1
    54    58    59   ar
    55    59    60   ar
    56    60    61   ar
    57    61    62   ar
    58    62    63   ar
    59    12     1    1
    60    63    58   ar
    61    11     5    1
    62    27    21   ar
    63    39    30   ar
    64    39    34   ar
    65    49    44   ar
    66    25    28    1
    67    42    43    1
    68    50    51    1
    69    15    16    1
@<TRIPOS>MOLECULE
*****
 63 69 0 0 0
SMALL
GASTEIGER

@<TRIPOS>ATOM
      1 N          65.3745   89.2702   14.4526 N.3     1  UNL1       -0.1862
      2 C          65.5945   88.0159   15.2452 C.3     1  UNL1        0.1775
      3 C          64.8031   86.7812   14.9303 C.2     1  UNL1        0.2452
      4 O          65.0232   85.5268   15.7230 O.2     1  UNL1       -0.2732
      5 N          63.7917   86.8008   13.8228 N.am    1  UNL1       -0.2541
      6 C          63.0003   85.5661   13.5079 C.3     1  UNL1        0.1577
      7 C          61.9888   85.5857   12.4004 C.2     1  UNL1        0.2445
      8 O          61.1974   84.3509   12.0855 O.2     1  UNL1       -0.2731
      9 N          61.7688   86.8400   11.6077 N.am    1  UNL1       -0.2705
     10 C          62.5602   88.0747   11.9226 C.3     1  UNL1        0.1359
     11 C          63.5717   88.0551   13.0302 C.3     1  UNL1        0.1908
     12 N          64.3631   89.2898   13.3451 N.am    1  UNL1       -0.1863
     13 C          64.1430   90.5441   12.5524 C.2     1  UNL1        0.3191
     14 O          63.1316   90.5637   11.4449 O.2     1  UNL1       -0.2512
     15 N          64.9344   91.7788   12.8673 N.am    1  UNL1       -0.2836
     16 H          65.5983   91.7660   13.5942 H       1  UNL1        0.1513
     17 C          66.1659   90.5049   14.7675 C.3     1  UNL1        0.1188
     18 C          66.4389   92.7095   16.1147 C.2     1  UNL1       -0.0034
     19 C          65.5914   91.5532   15.6735 C.2     1  UNL1       -0.0071
     20 C          63.2203   84.3118   14.3005 C.3     1  UNL1        0.0556
     21 C          63.0647   82.9723   13.6434 C.ar    1  UNL1       -0.0198
     22 C          63.8590   82.6431   12.4143 C.ar    1  UNL1       -0.0011
     23 C          63.7034   81.3037   11.7572 C.ar    1  UNL1        0.0363
     24 C          62.7535   80.2935   12.3292 C.ar    1  UNL1        0.1337
     25 O          62.5979   78.9541   11.6721 O.3     1  UNL1       -0.5055
     26 C          61.9592   80.6227   13.5584 C.ar    1  UNL1        0.0363
     27 C          62.1148   81.9621   14.2155 C.ar    1  UNL1       -0.0011
     28 H          63.0941   78.7484   10.9044 H       1  UNL1        0.2922
     29 C          60.7574   86.8596   10.5003 C.3     1  UNL1        0.1217
     30 C          60.3488   88.1632    9.8806 C.ar    1  UNL1        0.0135
     31 C          60.0600   89.3497   10.7516 C.ar    1  UNL1       -0.0012
     32 C          59.6515   90.6532   10.1320 C.ar    1  UNL1       -0.0002
     33 C          59.5318   90.7702    8.6414 C.ar    1  UNL1        0.0016
     34 C          59.8206   89.5836    7.7704 C.ar    1  UNL1        0.0214
     35 C          59.7873   89.3991    6.2822 C.ar    1  UNL1        0.0722
     36 C          60.1752   87.9816    5.9820 C.ar    1  UNL1        0.0805
     37 N          60.4482   87.2901    7.2847 N.ar    1  UNL1       -0.3241
     38 C          60.8670   85.8595    7.4526 C.3     1  UNL1        0.1305
     39 C          60.2291   88.2801    8.3900 C.ar    1  UNL1        0.0577
     40 C          59.4289   90.4481    5.2715 C.2     1  UNL1        0.2510
     41 O          57.9903   90.8001    5.0338 O.2     1  UNL1       -0.2698
     42 N          60.5091   91.1450    4.4986 N.am    1  UNL1       -0.2791
     43 H          61.4533   90.9139    4.6546 H       1  UNL1        0.1552
     44 C          60.1508   92.1939    3.4879 C.ar    1  UNL1        0.0701
     45 C          59.8060   91.7954    2.0835 C.ar    1  UNL1        0.0191
     46 C          59.4477   92.8442    1.0729 C.ar    1  UNL1        0.0354
     47 C          59.4343   94.2916    1.4666 C.ar    1  UNL1        0.1286
     48 N          59.7791   94.6901    2.8709 N.ar    1  UNL1       -0.2281
     49 C          60.1374   93.6412    3.8816 C.ar    1  UNL1        0.1149
     50 N          59.0760   95.3405    0.4559 N.pl3   1  UNL1       -0.3169
     51 H          58.1307   95.5524    0.2804 H       1  UNL1        0.1482
     52 C          60.1579   96.0665   -0.2873 C.3     1  UNL1        0.1057
     53 C          61.3833   95.3283   -0.7385 C.3     1  UNL1        0.0936
     54 N          62.5225   95.1136    0.2134 N.3     1  UNL1       -0.2689
     55 C          63.0729   93.7345    0.4255 C.3     1  UNL1        0.0897
     56 C          63.1113   96.2781    0.9532 C.3     1  UNL1        0.0897
     57 C          64.7144   93.0332   12.0747 C.3     1  UNL1        0.1177
     58 C          65.7752   93.5211   11.1331 C.ar    1  UNL1       -0.0025
     59 C          66.6922   92.5410   10.4635 C.ar    1  UNL1       -0.0026
     60 C          67.7530   93.0290    9.5219 C.ar    1  UNL1       -0.0003
     61 C          67.8967   94.4971    9.2499 C.ar    1  UNL1       -0.0000
     62 C          66.9797   95.4773    9.9195 C.ar    1  UNL1       -0.0003
     63 C          65.9189   94.9893   10.8611 C.ar    1  UNL1       -0.0026
@<TRIPOS>BOND
     1    18    19    2
     2    19    17    1
     3    17     1    1
     4     1     2    1
     5     2     3    1
     6     3     4    2
     7     3     5   am
     8     5     6    1
     9     6    20    1
    10    20    21    1
    11    21    22   ar
    12    22    23   ar
    13    23    24   ar
    14    24    25    1
    15    24    26   ar
    16    26    27   ar
    17     6     7    1
    18     7     8    2
    19     7     9   am
    20     9    29    1
    21    29    30    1
    22    30    31   ar
    23    31    32   ar
    24    32    33   ar
    25    33    34   ar
    26    34    35   ar
    27    35    40    1
    28    40    41    2
    29    40    42   am
    30    42    44    1
    31    44    45   ar
    32    45    46   ar
    33    46    47   ar
    34    47    50    1
    35    50    52    1
    36    52    53    1
    37    53    54    1
    38    54    55    1
    39    54    56    1
    40    47    48   ar
    41    48    49   ar
    42    35    36   ar
    43    36    37   ar
    44    37    38    1
    45    37    39   ar
    46     9    10    1
    47    11    10    1
    48    11    12    1
    49    12    13   am
    50    13    14    2
    51    13    15   am
    52    15    57    1
    53    57    58    1
    54    58    59   ar
    55    59    60   ar
    56    60    61   ar
    57    61    62   ar
    58    62    63   ar
    59    12     1    1
    60    63    58   ar
    61    11     5    1
    62    27    21   ar
    63    39    30   ar
    64    39    34   ar
    65    49    44   ar
    66    25    28    1
    67    42    43    1
    68    50    51    1
    69    15    16    1
@<TRIPOS>MOLECULE
*****
 63 69 0 0 0
SMALL
GASTEIGER

@<TRIPOS>ATOM
      1 N          65.7659   89.9284   13.9617 N.3     1  UNL1       -0.1862
      2 C          66.2015   88.7556   14.7893 C.3     1  UNL1        0.1775
      3 C          65.4011   87.4871   14.7725 C.2     1  UNL1        0.2452
      4 O          65.8367   86.3144   15.6001 O.2     1  UNL1       -0.2732
      5 N          64.1651   87.3914   13.9280 N.am    1  UNL1       -0.2541
      6 C          63.3647   86.1229   13.9111 C.3     1  UNL1        0.1577
      7 C          62.1288   86.0271   13.0667 C.2     1  UNL1        0.2445
      8 O          61.3284   84.7586   13.0498 O.2     1  UNL1       -0.2731
      9 N          61.6931   87.1999   12.2390 N.am    1  UNL1       -0.2705
     10 C          62.4935   88.4683   12.2559 C.3     1  UNL1        0.1359
     11 C          63.7295   88.5641   13.1004 C.3     1  UNL1        0.1908
     12 N          64.5299   89.8326   13.1173 N.am    1  UNL1       -0.1863
     13 C          64.0943   91.0053   12.2896 C.2     1  UNL1        0.3191
     14 O          62.8583   90.9096   11.4451 O.2     1  UNL1       -0.2512
     15 N          64.8947   92.2738   12.3065 N.am    1  UNL1       -0.2836
     16 H          65.7059   92.3367   12.8607 H       1  UNL1        0.1513
     17 C          66.5663   91.1968   13.9786 C.3     1  UNL1        0.1188
     18 C          66.7488   92.7275   16.0700 C.2     1  UNL1       -0.0034
     19 C          67.2889   91.6112   15.2260 C.2     1  UNL1       -0.0071
     20 C          63.8003   84.9502   14.7387 C.3     1  UNL1        0.0556
     21 C          63.4740   83.5554   14.2935 C.ar    1  UNL1       -0.0198
     22 C          64.3119   82.8880   13.2435 C.ar    1  UNL1       -0.0011
     23 C          63.9857   81.4933   12.7982 C.ar    1  UNL1        0.0363
     24 C          62.8215   80.7660   13.4029 C.ar    1  UNL1        0.1337
     25 O          62.4952   79.3712   12.9576 O.3     1  UNL1       -0.5055
     26 C          61.9835   81.4334   14.4529 C.ar    1  UNL1        0.0363
     27 C          62.3098   82.8281   14.8982 C.ar    1  UNL1       -0.0011
     28 H          63.0186   78.9543   12.3017 H       1  UNL1        0.2922
     29 C          60.4572   87.1041   11.3945 C.3     1  UNL1        0.1217
     30 C          60.5630   87.1714    9.8997 C.ar    1  UNL1        0.0135
     31 C          61.0144   85.9690    9.1249 C.ar    1  UNL1       -0.0012
     32 C          61.1203   86.0363    7.6302 C.ar    1  UNL1       -0.0002
     33 C          60.7747   87.3061    6.9103 C.ar    1  UNL1        0.0016
     34 C          60.3233   88.5085    7.6852 C.ar    1  UNL1        0.0214
     35 C          59.9184   89.8868    7.2534 C.ar    1  UNL1        0.0722
     36 C          59.5623   90.6712    8.4813 C.ar    1  UNL1        0.0805
     37 N          59.7471   89.7778    9.6719 N.ar    1  UNL1       -0.3241
     38 C          59.5042   90.1549   11.1033 C.3     1  UNL1        0.1305
     39 C          60.2174   88.4412    9.1799 C.ar    1  UNL1        0.0577
     40 C          59.8768   90.3919    5.8416 C.2     1  UNL1        0.2510
     41 O          58.6962   90.0836    4.9691 O.2     1  UNL1       -0.2698
     42 N          61.0159   91.2053    5.3022 N.am    1  UNL1       -0.2791
     43 H          61.7908   91.4076    5.8748 H       1  UNL1        0.1552
     44 C          60.9745   91.7104    3.8905 C.ar    1  UNL1        0.0701
     45 C          62.1705   91.5469    3.0001 C.ar    1  UNL1        0.0191
     46 C          62.1291   92.0520    1.5883 C.ar    1  UNL1        0.0354
     47 C          60.8918   92.7206    1.0669 C.ar    1  UNL1        0.1286
     48 N          59.6957   92.8841    1.9573 N.ar    1  UNL1       -0.2281
     49 C          59.7371   92.3790    3.3691 C.ar    1  UNL1        0.1149
     50 N          60.8503   93.2257   -0.3449 N.pl3   1  UNL1       -0.3169
     51 H          59.9966   93.2485   -0.8346 H       1  UNL1        0.1482
     52 C          62.1096   93.6960   -1.0105 C.3     1  UNL1        0.1057
     53 C          62.8208   94.9123   -0.4960 C.3     1  UNL1        0.0936
     54 N          64.3199   94.9618   -0.4983 N.3     1  UNL1       -0.2689
     55 C          65.0402   95.8260   -1.4903 C.3     1  UNL1        0.0897
     56 C          65.0987   94.1469    0.4914 C.3     1  UNL1        0.0897
     57 C          64.4591   93.4465   11.4789 C.3     1  UNL1        0.1177
     58 C          65.4597   94.1863   10.6413 C.ar    1  UNL1       -0.0025
     59 C          66.5582   93.4364    9.9480 C.ar    1  UNL1       -0.0026
     60 C          67.5588   94.1762    9.1104 C.ar    1  UNL1       -0.0003
     61 C          67.4607   95.6660    8.9660 C.ar    1  UNL1       -0.0000
     62 C          66.3621   96.4160    9.6592 C.ar    1  UNL1       -0.0003
     63 C          65.3616   95.6762   10.4969 C.ar    1  UNL1       -0.0026
@<TRIPOS>BOND
     1    18    19    2
     2    19    17    1
     3    17     1    1
     4     1     2    1
     5     2     3    1
     6     3     4    2
     7     3     5   am
     8     5     6    1
     9     6    20    1
    10    20    21    1
    11    21    22   ar
    12    22    23   ar
    13    23    24   ar
    14    24    25    1
    15    24    26   ar
    16    26    27   ar
    17     6     7    1
    18     7     8    2
    19     7     9   am
    20     9    29    1
    21    29    30    1
    22    30    31   ar
    23    31    32   ar
    24    32    33   ar
    25    33    34   ar
    26    34    35   ar
    27    35    40    1
    28    40    41    2
    29    40    42   am
    30    42    44    1
    31    44    45   ar
    32    45    46   ar
    33    46    47   ar
    34    47    50    1
    35    50    52    1
    36    52    53    1
    37    53    54    1
    38    54    55    1
    39    54    56    1
    40    47    48   ar
    41    48    49   ar
    42    35    36   ar
    43    36    37   ar
    44    37    38    1
    45    37    39   ar
    46     9    10    1
    47    11    10    1
    48    11    12    1
    49    12    13   am
    50    13    14    2
    51    13    15   am
    52    15    57    1
    53    57    58    1
    54    58    59   ar
    55    59    60   ar
    56    60    61   ar
    57    61    62   ar
    58    62    63   ar
    59    12     1    1
    60    63    58   ar
    61    11     5    1
    62    27    21   ar
    63    39    30   ar
    64    39    34   ar
    65    49    44   ar
    66    25    28    1
    67    42    43    1
    68    50    51    1
    69    15    16    1
@<TRIPOS>MOLECULE
*****
 63 69 0 0 0
SMALL
GASTEIGER

@<TRIPOS>ATOM
      1 N          65.7587   89.9283   13.9646 N.3     1  UNL1       -0.1862
      2 C          66.1939   88.7553   14.7920 C.3     1  UNL1        0.1775
      3 C          65.3952   87.4858   14.7721 C.2     1  UNL1        0.2452
      4 O          65.8305   86.3128   15.5996 O.2     1  UNL1       -0.2732
      5 N          64.1613   87.3893   13.9248 N.am    1  UNL1       -0.2541
      6 C          63.3625   86.1198   13.9048 C.3     1  UNL1        0.1577
      7 C          62.1286   86.0233   13.0575 C.2     1  UNL1        0.2445
      8 O          61.3299   84.7538   13.0376 O.2     1  UNL1       -0.2731
      9 N          61.6933   87.1963   12.2301 N.am    1  UNL1       -0.2705
     10 C          62.4920   88.4658   12.2500 C.3     1  UNL1        0.1359
     11 C          63.7260   88.5623   13.0974 C.3     1  UNL1        0.1908
     12 N          64.5248   89.8318   13.1173 N.am    1  UNL1       -0.1863
     13 C          64.0895   91.0048   12.2898 C.2     1  UNL1        0.3191
     14 O          62.8555   90.9083   11.4425 O.2     1  UNL1       -0.2512
     15 N          64.8882   92.2743   12.3097 N.am    1  UNL1       -0.2836
     16 H          65.6981   92.3377   12.8659 H       1  UNL1        0.1513
     17 C          66.5575   91.1978   13.9845 C.3     1  UNL1        0.1188
     18 C          66.8927   92.7418   16.0470 C.2     1  UNL1       -0.0034
     19 C          67.3332   91.5767   15.2111 C.2     1  UNL1       -0.0071
     20 C          63.7978   84.9468   14.7323 C.3     1  UNL1        0.0556
     21 C          63.4572   83.5530   14.2950 C.ar    1  UNL1       -0.0198
     22 C          64.2752   82.8789   13.2337 C.ar    1  UNL1       -0.0011
     23 C          63.9346   81.4850   12.7965 C.ar    1  UNL1        0.0363
     24 C          62.7760   80.7652   13.4206 C.ar    1  UNL1        0.1337
     25 O          62.4354   79.3714   12.9834 O.3     1  UNL1       -0.5055
     26 C          61.9579   81.4393   14.4820 C.ar    1  UNL1        0.0363
     27 C          62.2985   82.8332   14.9192 C.ar    1  UNL1       -0.0011
     28 H          62.9464   78.9503   12.3205 H       1  UNL1        0.2922
     29 C          60.4593   87.0998   11.3827 C.3     1  UNL1        0.1217
     30 C          60.5679   87.1739    9.8885 C.ar    1  UNL1        0.0135
     31 C          61.0375   85.9805    9.1105 C.ar    1  UNL1       -0.0012
     32 C          61.1460   86.0546    7.6163 C.ar    1  UNL1       -0.0002
     33 C          60.7850   87.3221    6.9001 C.ar    1  UNL1        0.0016
     34 C          60.3155   88.5155    7.6780 C.ar    1  UNL1        0.0214
     35 C          59.8930   89.8897    7.2502 C.ar    1  UNL1        0.0722
     36 C          59.5233   90.6649    8.4800 C.ar    1  UNL1        0.0805
     37 N          59.7173   89.7699    9.6678 N.ar    1  UNL1       -0.3241
     38 C          59.4659   90.1384   11.0999 C.3     1  UNL1        0.1305
     39 C          60.2069   88.4415    9.1722 C.ar    1  UNL1        0.0577
     40 C          59.8480   90.3993    5.8400 C.2     1  UNL1        0.2510
     41 O          58.6685   90.0877    4.9672 O.2     1  UNL1       -0.2698
     42 N          60.9825   91.2204    5.3027 N.am    1  UNL1       -0.2791
     43 H          61.7567   91.4248    5.8756 H       1  UNL1        0.1552
     44 C          60.9377   91.7299    3.8927 C.ar    1  UNL1        0.0701
     45 C          62.1280   91.5603    2.9958 C.ar    1  UNL1        0.0191
     46 C          62.0832   92.0699    1.5857 C.ar    1  UNL1        0.0354
     47 C          60.8481   92.7490    1.0725 C.ar    1  UNL1        0.1286
     48 N          59.6578   92.9185    1.9694 N.ar    1  UNL1       -0.2281
     49 C          59.7026   92.4090    3.3795 C.ar    1  UNL1        0.1149
     50 N          60.8033   93.2585   -0.3375 N.pl3   1  UNL1       -0.3169
     51 H          61.5575   93.7793   -0.6970 H       1  UNL1        0.1482
     52 C          59.6093   92.9746   -1.2000 C.3     1  UNL1        0.1057
     53 C          58.5241   94.0006   -1.3400 C.3     1  UNL1        0.0936
     54 N          57.3023   93.6937   -2.1544 N.3     1  UNL1       -0.2689
     55 C          56.6000   92.3790   -1.9866 C.3     1  UNL1        0.0897
     56 C          56.7830   94.7016   -3.1365 C.3     1  UNL1        0.0897
     57 C          64.4530   93.4473   11.4823 C.3     1  UNL1        0.1177
     58 C          65.4459   94.1634   10.6155 C.ar    1  UNL1       -0.0025
     59 C          65.3107   95.6388   10.3816 C.ar    1  UNL1       -0.0026
     60 C          66.3036   96.3549    9.5148 C.ar    1  UNL1       -0.0003
     61 C          67.4318   95.5956    8.8819 C.ar    1  UNL1       -0.0000
     62 C          67.5670   94.1200    9.1158 C.ar    1  UNL1       -0.0003
     63 C          66.5741   93.4040    9.9826 C.ar    1  UNL1       -0.0026
@<TRIPOS>BOND
     1    18    19    2
     2    19    17    1
     3    17     1    1
     4     1     2    1
     5     2     3    1
     6     3     4    2
     7     3     5   am
     8     5     6    1
     9     6    20    1
    10    20    21    1
    11    21    22   ar
    12    22    23   ar
    13    23    24   ar
    14    24    25    1
    15    24    26   ar
    16    26    27   ar
    17     6     7    1
    18     7     8    2
    19     7     9   am
    20     9    29    1
    21    29    30    1
    22    30    31   ar
    23    31    32   ar
    24    32    33   ar
    25    33    34   ar
    26    34    35   ar
    27    35    40    1
    28    40    41    2
    29    40    42   am
    30    42    44    1
    31    44    45   ar
    32    45    46   ar
    33    46    47   ar
    34    47    50    1
    35    50    52    1
    36    52    53    1
    37    53    54    1
    38    54    55    1
    39    54    56    1
    40    47    48   ar
    41    48    49   ar
    42    35    36   ar
    43    36    37   ar
    44    37    38    1
    45    37    39   ar
    46     9    10    1
    47    11    10    1
    48    11    12    1
    49    12    13   am
    50    13    14    2
    51    13    15   am
    52    15    57    1
    53    57    58    1
    54    58    59   ar
    55    59    60   ar
    56    60    61   ar
    57    61    62   ar
    58    62    63   ar
    59    12     1    1
    60    63    58   ar
    61    11     5    1
    62    27    21   ar
    63    39    30   ar
    64    39    34   ar
    65    49    44   ar
    66    25    28    1
    67    42    43    1
    68    50    51    1
    69    15    16    1
