@<TRIPOS>MOLECULE
*****
 33 36 0 0 0
SMALL
GASTEIGER

@<TRIPOS>ATOM
      1 C          63.1620   84.4196   10.1048 C.ar    1  UNL1       -0.0062
      2 C          62.3048   84.8767   11.2476 C.ar    1  UNL1       -0.0031
      3 C          61.4093   86.0688   11.0834 C.ar    1  UNL1       -0.0010
      4 C          61.3710   86.8036    9.7763 C.ar    1  UNL1        0.0211
      5 C          62.2282   86.3465    8.6334 C.ar    1  UNL1       -0.0010
      6 C          63.1237   85.1544    8.7977 C.ar    1  UNL1       -0.0031
      7 C          64.0576   83.2275   10.2690 C.3     1  UNL1        0.0994
      8 C          62.8240   81.1511   11.2264 C.3     1  UNL1        0.0902
      9 N          63.8206   82.2601   11.3906 N.3     1  UNL1       -0.2639
     10 C          64.5800   82.4018   12.6763 C.3     1  UNL1        0.0995
     11 C          64.1126   83.3720   13.7205 C.ar    1  UNL1       -0.0039
     12 C          62.9865   83.0004   14.6390 C.ar    1  UNL1       -0.0028
     13 C          62.5191   83.9707   15.6832 C.ar    1  UNL1        0.0020
     14 C          63.1779   85.3124   15.8088 C.ar    1  UNL1        0.0296
     15 C          64.3041   85.6839   14.8903 C.ar    1  UNL1        0.1399
     16 F          64.9629   87.0257   15.0159 F       1  UNL1       -0.2042
     17 C          64.7714   84.7137   13.8461 C.ar    1  UNL1        0.0267
     18 C          60.4754   87.9957    9.6120 C.3     1  UNL1        0.2320
     19 O          61.0696   89.3608    9.4297 O.3     1  UNL1       -0.4705
     20 C          61.9985   89.9191   10.4669 C.ar    1  UNL1        0.1421
     21 C          63.0817   90.8762   10.0663 C.ar    1  UNL1        0.0371
     22 C          64.0105   91.4344   11.1034 C.ar    1  UNL1        0.0059
     23 C          63.8561   91.0356   12.5412 C.ar    1  UNL1        0.0335
     24 C          64.7849   91.5938   13.5783 C.ar    1  UNL1        0.0163
     25 C          64.6305   91.1949   15.0160 C.ar    1  UNL1        0.0805
     26 C          63.5472   90.2378   15.4166 C.ar    1  UNL1        0.3457
     27 O          63.3928   89.8389   16.8543 O.2     1  UNL1       -0.2445
     28 O          62.6184   89.6796   14.3795 O.2     1  UNL1       -0.4209
     29 C          62.7729   90.0784   12.9417 C.ar    1  UNL1        0.1515
     30 C          61.8441   89.5202   11.9046 C.ar    1  UNL1        0.0745
     31 C          65.8682   92.5509   13.1777 C.3     1  UNL1        0.1639
     32 O          66.1079   93.7927   13.9845 O.3     1  UNL1       -0.3772
     33 H          65.3385   94.3788   13.9121 H       1  UNL1        0.2109
@<TRIPOS>BOND
     1     8     9    1
     2     9     7    1
     3     7     1    1
     4     1     2   ar
     5     2     3   ar
     6     3     4   ar
     7     4    18    1
     8    18    19    1
     9    19    20    1
    10    20    21   ar
    11    21    22   ar
    12    22    23   ar
    13    23    24   ar
    14    24    31    1
    15    31    32    1
    16    24    25   ar
    17    25    26   ar
    18    26    27    2
    19    26    28   ar
    20    28    29   ar
    21    29    30   ar
    22     4     5   ar
    23     5     6   ar
    24     9    10    1
    25    10    11    1
    26    11    12   ar
    27    12    13   ar
    28    13    14   ar
    29    14    15   ar
    30    15    16    1
    31    15    17   ar
    32     6     1   ar
    33    17    11   ar
    34    30    20   ar
    35    29    23   ar
    36    32    33    1
@<TRIPOS>MOLECULE
*****
 33 36 0 0 0
SMALL
GASTEIGER

@<TRIPOS>ATOM
      1 C          63.1543   84.2101   10.4517 C.ar    1  UNL1       -0.0062
      2 C          62.2981   84.8104   11.5271 C.ar    1  UNL1       -0.0031
      3 C          61.4867   86.0391   11.2412 C.ar    1  UNL1       -0.0010
      4 C          61.5315   86.6675    9.8800 C.ar    1  UNL1        0.0211
      5 C          62.3877   86.0673    8.8046 C.ar    1  UNL1       -0.0010
      6 C          63.1991   84.8385    9.0904 C.ar    1  UNL1       -0.0031
      7 C          63.9658   82.9813   10.7375 C.3     1  UNL1        0.0994
      8 C          62.5474   81.1290   11.8806 C.3     1  UNL1        0.0902
      9 N          63.6543   82.1395   11.9393 N.3     1  UNL1       -0.2639
     10 C          64.4496   82.3083   13.1998 C.3     1  UNL1        0.0995
     11 C          64.2639   83.5331   14.0455 C.ar    1  UNL1       -0.0039
     12 C          65.3224   84.5957   14.0694 C.ar    1  UNL1       -0.0028
     13 C          65.1366   85.8206   14.9151 C.ar    1  UNL1        0.0020
     14 C          63.8924   85.9829   15.7369 C.ar    1  UNL1        0.0296
     15 C          62.8339   84.9203   15.7131 C.ar    1  UNL1        0.1399
     16 F          61.5896   85.0827   16.5350 F       1  UNL1       -0.2042
     17 C          63.0196   83.6955   14.8674 C.ar    1  UNL1        0.0267
     18 C          60.7199   87.8963    9.5941 C.3     1  UNL1        0.2320
     19 O          61.4064   89.2019    9.3221 O.3     1  UNL1       -0.4705
     20 C          62.2895   89.8170   10.3670 C.ar    1  UNL1        0.1421
     21 C          62.2604   89.2978   11.7739 C.ar    1  UNL1        0.0371
     22 C          63.1435   89.9128   12.8188 C.ar    1  UNL1        0.0059
     23 C          64.0557   91.0472   12.4567 C.ar    1  UNL1        0.0335
     24 C          64.9389   91.6623   13.5017 C.ar    1  UNL1        0.0163
     25 C          65.8511   92.7966   13.1396 C.ar    1  UNL1        0.0805
     26 C          65.8802   93.3159   11.7326 C.ar    1  UNL1        0.3457
     27 O          66.7924   94.4503   11.3705 O.2     1  UNL1       -0.2445
     28 O          64.9971   92.7008   10.6877 O.2     1  UNL1       -0.4209
     29 C          64.0849   91.5665   11.0498 C.ar    1  UNL1        0.1515
     30 C          63.2018   90.9514   10.0050 C.ar    1  UNL1        0.0745
     31 C          64.9097   91.1430   14.9086 C.3     1  UNL1        0.1639
     32 O          63.7977   91.5425   15.8326 O.3     1  UNL1       -0.3772
     33 H          63.8524   92.4942   16.0120 H       1  UNL1        0.2109
@<TRIPOS>BOND
     1     8     9    1
     2     9     7    1
     3     7     1    1
     4     1     2   ar
     5     2     3   ar
     6     3     4   ar
     7     4    18    1
     8    18    19    1
     9    19    20    1
    10    20    21   ar
    11    21    22   ar
    12    22    23   ar
    13    23    24   ar
    14    24    31    1
    15    31    32    1
    16    24    25   ar
    17    25    26   ar
    18    26    27    2
    19    26    28   ar
    20    28    29   ar
    21    29    30   ar
    22     4     5   ar
    23     5     6   ar
    24     9    10    1
    25    10    11    1
    26    11    12   ar
    27    12    13   ar
    28    13    14   ar
    29    14    15   ar
    30    15    16    1
    31    15    17   ar
    32     6     1   ar
    33    17    11   ar
    34    30    20   ar
    35    29    23   ar
    36    32    33    1
@<TRIPOS>MOLECULE
*****
 33 36 0 0 0
SMALL
GASTEIGER

@<TRIPOS>ATOM
      1 C          63.8278   83.9050   14.7577 C.ar    1  UNL1       -0.0062
      2 C          62.6678   84.0350   15.6997 C.ar    1  UNL1       -0.0031
      3 C          62.4268   85.3294   16.4183 C.ar    1  UNL1       -0.0010
      4 C          63.3457   86.4937   16.1948 C.ar    1  UNL1        0.0211
      5 C          64.5057   86.3637   15.2528 C.ar    1  UNL1       -0.0010
      6 C          64.7467   85.0693   14.5342 C.ar    1  UNL1       -0.0031
      7 C          64.0689   82.6105   14.0390 C.3     1  UNL1        0.0994
      8 C          62.3499   81.4995   12.4389 C.3     1  UNL1        0.0902
      9 N          63.5239   82.4075   12.6564 N.3     1  UNL1       -0.2639
     10 C          64.1529   83.1123   11.4913 C.3     1  UNL1        0.0995
     11 C          63.3722   84.1387   10.7252 C.ar    1  UNL1       -0.0039
     12 C          63.5893   84.2985    9.2496 C.ar    1  UNL1       -0.0028
     13 C          62.8085   85.3250    8.4835 C.ar    1  UNL1        0.0020
     14 C          61.8107   86.1916    9.1930 C.ar    1  UNL1        0.0296
     15 C          61.5936   86.0318   10.6686 C.ar    1  UNL1        0.1399
     16 F          60.5958   86.8984   11.3780 F       1  UNL1       -0.2042
     17 C          62.3743   85.0054   11.4347 C.ar    1  UNL1        0.0267
     18 C          63.1046   87.7882   16.9135 C.3     1  UNL1        0.2320
     19 O          62.4264   88.9237   16.2060 O.3     1  UNL1       -0.4705
     20 C          63.2053   89.7921   15.2629 C.ar    1  UNL1        0.1421
     21 C          62.8966   89.7706   13.7952 C.ar    1  UNL1        0.0371
     22 C          63.6755   90.6389   12.8523 C.ar    1  UNL1        0.0059
     23 C          64.7631   91.5288   13.3770 C.ar    1  UNL1        0.0335
     24 C          65.5420   92.3972   12.4339 C.ar    1  UNL1        0.0163
     25 C          66.6295   93.2871   12.9587 C.ar    1  UNL1        0.0805
     26 C          66.9381   93.3087   14.4265 C.ar    1  UNL1        0.3457
     27 O          68.0256   94.1986   14.9512 O.2     1  UNL1       -0.2445
     28 O          66.1592   92.4403   15.3695 O.2     1  UNL1       -0.4209
     29 C          65.0717   91.5504   14.8447 C.ar    1  UNL1        0.1515
     30 C          64.2928   90.6820   15.7877 C.ar    1  UNL1        0.0745
     31 C          65.2333   92.3757   10.9662 C.3     1  UNL1        0.1639
     32 O          65.4630   93.6020   10.1334 O.3     1  UNL1       -0.3772
     33 H          64.8560   94.3035   10.4166 H       1  UNL1        0.2109
@<TRIPOS>BOND
     1     8     9    1
     2     9     7    1
     3     7     1    1
     4     1     2   ar
     5     2     3   ar
     6     3     4   ar
     7     4    18    1
     8    18    19    1
     9    19    20    1
    10    20    21   ar
    11    21    22   ar
    12    22    23   ar
    13    23    24   ar
    14    24    31    1
    15    31    32    1
    16    24    25   ar
    17    25    26   ar
    18    26    27    2
    19    26    28   ar
    20    28    29   ar
    21    29    30   ar
    22     4     5   ar
    23     5     6   ar
    24     9    10    1
    25    10    11    1
    26    11    12   ar
    27    12    13   ar
    28    13    14   ar
    29    14    15   ar
    30    15    16    1
    31    15    17   ar
    32     6     1   ar
    33    17    11   ar
    34    30    20   ar
    35    29    23   ar
    36    32    33    1
@<TRIPOS>MOLECULE
*****
 33 36 0 0 0
SMALL
GASTEIGER

@<TRIPOS>ATOM
      1 C          62.9449   83.6235   11.1026 C.ar    1  UNL1       -0.0062
      2 C          62.2710   84.5800   12.0412 C.ar    1  UNL1       -0.0031
      3 C          61.9205   85.9631   11.5787 C.ar    1  UNL1       -0.0010
      4 C          62.2440   86.3898   10.1775 C.ar    1  UNL1        0.0211
      5 C          62.9178   85.4334    9.2389 C.ar    1  UNL1       -0.0010
      6 C          63.2683   84.0503    9.7014 C.ar    1  UNL1       -0.0031
      7 C          63.2954   82.2403   11.5651 C.3     1  UNL1        0.0994
      8 C          61.7638   81.0681   13.3057 C.3     1  UNL1        0.0902
      9 N          63.0148   81.8289   12.9800 N.3     1  UNL1       -0.2639
     10 C          63.9851   82.1785   14.0692 C.3     1  UNL1        0.0995
     11 C          63.9804   83.5553   14.6644 C.ar    1  UNL1       -0.0039
     12 C          65.0424   84.5423   14.2796 C.ar    1  UNL1       -0.0028
     13 C          65.0377   85.9192   14.8748 C.ar    1  UNL1        0.0020
     14 C          63.9710   86.3091   15.8548 C.ar    1  UNL1        0.0296
     15 C          62.9091   85.3221   16.2395 C.ar    1  UNL1        0.1399
     16 F          61.8424   85.7120   17.2195 F       1  UNL1       -0.2042
     17 C          62.9137   83.9452   15.6444 C.ar    1  UNL1        0.0267
     18 C          61.8934   87.7731    9.7150 C.3     1  UNL1        0.2320
     19 O          61.5689   88.8397   10.7184 O.3     1  UNL1       -0.4705
     20 C          62.5875   89.8883   11.0544 C.ar    1  UNL1        0.1421
     21 C          62.9986   90.8934   10.0197 C.ar    1  UNL1        0.0371
     22 C          64.0172   91.9420   10.3557 C.ar    1  UNL1        0.0059
     23 C          64.6247   91.9854   11.7265 C.ar    1  UNL1        0.0335
     24 C          65.6434   93.0340   12.0625 C.ar    1  UNL1        0.0163
     25 C          66.2510   93.0774   13.4333 C.ar    1  UNL1        0.0805
     26 C          65.8399   92.0722   14.4680 C.ar    1  UNL1        0.3457
     27 O          66.4474   92.1156   15.8388 O.2     1  UNL1       -0.2445
     28 O          64.8213   91.0237   14.1320 O.2     1  UNL1       -0.4209
     29 C          64.2137   90.9803   12.7612 C.ar    1  UNL1        0.1515
     30 C          63.1951   89.9317   12.4252 C.ar    1  UNL1        0.0745
     31 C          66.0544   94.0391   11.0278 C.3     1  UNL1        0.1639
     32 O          67.4785   94.0940   10.5595 O.3     1  UNL1       -0.3772
     33 H          68.0493   94.3729   11.2925 H       1  UNL1        0.2109
@<TRIPOS>BOND
     1     8     9    1
     2     9     7    1
     3     7     1    1
     4     1     2   ar
     5     2     3   ar
     6     3     4   ar
     7     4    18    1
     8    18    19    1
     9    19    20    1
    10    20    21   ar
    11    21    22   ar
    12    22    23   ar
    13    23    24   ar
    14    24    31    1
    15    31    32    1
    16    24    25   ar
    17    25    26   ar
    18    26    27    2
    19    26    28   ar
    20    28    29   ar
    21    29    30   ar
    22     4     5   ar
    23     5     6   ar
    24     9    10    1
    25    10    11    1
    26    11    12   ar
    27    12    13   ar
    28    13    14   ar
    29    14    15   ar
    30    15    16    1
    31    15    17   ar
    32     6     1   ar
    33    17    11   ar
    34    30    20   ar
    35    29    23   ar
    36    32    33    1
@<TRIPOS>MOLECULE
*****
 33 36 0 0 0
SMALL
GASTEIGER

@<TRIPOS>ATOM
      1 C          63.5600   88.1138   16.0712 C.ar    1  UNL1       -0.0062
      2 C          62.9425   87.0380   16.9146 C.ar    1  UNL1       -0.0031
      3 C          63.2376   85.5961   16.6252 C.ar    1  UNL1       -0.0010
      4 C          64.1502   85.2300   15.4924 C.ar    1  UNL1        0.0211
      5 C          64.7677   86.3058   14.6490 C.ar    1  UNL1       -0.0010
      6 C          64.4726   87.7477   14.9384 C.ar    1  UNL1       -0.0031
      7 C          63.2649   89.5558   16.3605 C.3     1  UNL1        0.0994
      8 C          63.2162   90.4162   13.9096 C.3     1  UNL1        0.0902
      9 N          63.6017   90.6084   15.3464 N.3     1  UNL1       -0.2639
     10 C          64.3240   91.8532   15.7691 C.3     1  UNL1        0.0995
     11 C          65.7670   92.0428   15.4062 C.ar    1  UNL1       -0.0039
     12 C          66.7319   92.5781   16.4223 C.ar    1  UNL1       -0.0028
     13 C          68.1749   92.7678   16.0594 C.ar    1  UNL1        0.0020
     14 C          68.6531   92.4221   14.6804 C.ar    1  UNL1        0.0296
     15 C          67.6883   91.8867   13.6642 C.ar    1  UNL1        0.1399
     16 F          68.1666   91.5410   12.2851 F       1  UNL1       -0.2042
     17 C          66.2453   91.6971   14.0271 C.ar    1  UNL1        0.0267
     18 C          64.4453   83.7880   15.2030 C.3     1  UNL1        0.2320
     19 O          63.6190   83.0401   14.1991 O.3     1  UNL1       -0.4705
     20 C          63.2945   83.6696   12.8767 C.ar    1  UNL1        0.1421
     21 C          63.9063   83.1289   11.6185 C.ar    1  UNL1        0.0371
     22 C          63.5818   83.7583   10.2962 C.ar    1  UNL1        0.0059
     23 C          62.6454   84.9284   10.2322 C.ar    1  UNL1        0.0335
     24 C          62.3209   85.5578    8.9098 C.ar    1  UNL1        0.0163
     25 C          61.3845   86.7279    8.8458 C.ar    1  UNL1        0.0805
     26 C          60.7727   87.2686   10.1042 C.ar    1  UNL1        0.3457
     27 O          59.8363   88.4387   10.0402 O.2     1  UNL1       -0.2445
     28 O          61.0972   86.6392   11.4265 O.2     1  UNL1       -0.4209
     29 C          62.0336   85.4691   11.4905 C.ar    1  UNL1        0.1515
     30 C          62.3581   84.8397   12.8127 C.ar    1  UNL1        0.0745
     31 C          62.9327   85.0172    7.6515 C.3     1  UNL1        0.1639
     32 O          62.0616   84.6865    6.4760 O.3     1  UNL1       -0.3772
     33 H          61.4781   83.9459    6.7040 H       1  UNL1        0.2109
@<TRIPOS>BOND
     1     8     9    1
     2     9     7    1
     3     7     1    1
     4     1     2   ar
     5     2     3   ar
     6     3     4   ar
     7     4    18    1
     8    18    19    1
     9    19    20    1
    10    20    21   ar
    11    21    22   ar
    12    22    23   ar
    13    23    24   ar
    14    24    31    1
    15    31    32    1
    16    24    25   ar
    17    25    26   ar
    18    26    27    2
    19    26    28   ar
    20    28    29   ar
    21    29    30   ar
    22     4     5   ar
    23     5     6   ar
    24     9    10    1
    25    10    11    1
    26    11    12   ar
    27    12    13   ar
    28    13    14   ar
    29    14    15   ar
    30    15    16    1
    31    15    17   ar
    32     6     1   ar
    33    17    11   ar
    34    30    20   ar
    35    29    23   ar
    36    32    33    1
@<TRIPOS>MOLECULE
*****
 33 36 0 0 0
SMALL
GASTEIGER

@<TRIPOS>ATOM
      1 C          63.8923   84.3939   15.1407 C.ar    1  UNL1       -0.0062
      2 C          62.7727   84.5194   16.1310 C.ar    1  UNL1       -0.0031
      3 C          62.4569   85.8530   16.7407 C.ar    1  UNL1       -0.0010
      4 C          63.2606   87.0609   16.3602 C.ar    1  UNL1        0.0211
      5 C          64.3801   86.9354   15.3699 C.ar    1  UNL1       -0.0010
      6 C          64.6960   85.6018   14.7601 C.ar    1  UNL1       -0.0031
      7 C          64.2082   83.0603   14.5309 C.3     1  UNL1        0.0994
      8 C          62.0801   81.7659   13.7924 C.3     1  UNL1        0.0902
      9 N          63.3361   82.5076   13.4428 N.3     1  UNL1       -0.2639
     10 C          63.7200   82.6967   12.0051 C.3     1  UNL1        0.0995
     11 C          63.2024   83.8783   11.2398 C.ar    1  UNL1       -0.0039
     12 C          62.4021   84.9348   11.9422 C.ar    1  UNL1       -0.0028
     13 C          61.8845   86.1165   11.1768 C.ar    1  UNL1        0.0020
     14 C          62.1672   86.2417    9.7091 C.ar    1  UNL1        0.0296
     15 C          62.9676   85.1853    9.0067 C.ar    1  UNL1        0.1399
     16 F          63.2503   85.3105    7.5388 F       1  UNL1       -0.2042
     17 C          63.4851   84.0036    9.7720 C.ar    1  UNL1        0.0267
     18 C          62.9447   88.3945   16.9700 C.3     1  UNL1        0.2320
     19 O          63.8052   89.5835   16.6605 O.3     1  UNL1       -0.4705
     20 C          63.8815   90.1094   15.2578 C.ar    1  UNL1        0.1421
     21 C          64.9302   91.1170   14.8906 C.ar    1  UNL1        0.0371
     22 C          65.0065   91.6428   13.4878 C.ar    1  UNL1        0.0059
     23 C          64.0341   91.1610   12.4523 C.ar    1  UNL1        0.0335
     24 C          64.1105   91.6869   11.0496 C.ar    1  UNL1        0.0163
     25 C          63.1381   91.2051   10.0140 C.ar    1  UNL1        0.0805
     26 C          62.0893   90.1974   10.3813 C.ar    1  UNL1        0.3457
     27 O          61.1169   89.7156    9.3458 O.2     1  UNL1       -0.2445
     28 O          62.0130   89.6716   11.7840 O.2     1  UNL1       -0.4209
     29 C          62.9854   90.1534   12.8195 C.ar    1  UNL1        0.1515
     30 C          62.9091   89.6276   14.2222 C.ar    1  UNL1        0.0745
     31 C          65.1592   92.6945   10.6824 C.3     1  UNL1        0.1639
     32 O          66.5852   92.2632   10.5075 O.3     1  UNL1       -0.3772
     33 H          66.9392   91.9636   11.3594 H       1  UNL1        0.2109
@<TRIPOS>BOND
     1     8     9    1
     2     9     7    1
     3     7     1    1
     4     1     2   ar
     5     2     3   ar
     6     3     4   ar
     7     4    18    1
     8    18    19    1
     9    19    20    1
    10    20    21   ar
    11    21    22   ar
    12    22    23   ar
    13    23    24   ar
    14    24    31    1
    15    31    32    1
    16    24    25   ar
    17    25    26   ar
    18    26    27    2
    19    26    28   ar
    20    28    29   ar
    21    29    30   ar
    22     4     5   ar
    23     5     6   ar
    24     9    10    1
    25    10    11    1
    26    11    12   ar
    27    12    13   ar
    28    13    14   ar
    29    14    15   ar
    30    15    16    1
    31    15    17   ar
    32     6     1   ar
    33    17    11   ar
    34    30    20   ar
    35    29    23   ar
    36    32    33    1
@<TRIPOS>MOLECULE
*****
 33 36 0 0 0
SMALL
GASTEIGER

@<TRIPOS>ATOM
      1 C          64.2262   91.1638   12.8279 C.ar    1  UNL1       -0.0062
      2 C          63.2045   90.2024   13.3586 C.ar    1  UNL1       -0.0031
      3 C          62.1600   89.6368   12.4426 C.ar    1  UNL1       -0.0010
      4 C          62.1372   90.0327   10.9960 C.ar    1  UNL1        0.0211
      5 C          63.1589   90.9941   10.4653 C.ar    1  UNL1       -0.0010
      6 C          64.2035   91.5596   11.3813 C.ar    1  UNL1       -0.0031
      7 C          65.2709   91.7294   13.7439 C.3     1  UNL1        0.0994
      8 C          67.8167   91.9144   13.2603 C.3     1  UNL1        0.0902
      9 N          66.4336   92.4888   13.1772 N.3     1  UNL1       -0.2639
     10 C          66.2132   93.8227   12.5274 C.3     1  UNL1        0.0995
     11 C          66.7651   94.0905   11.1586 C.ar    1  UNL1       -0.0039
     12 C          66.6526   95.4610   10.5595 C.ar    1  UNL1       -0.0028
     13 C          67.2046   95.7288    9.1907 C.ar    1  UNL1        0.0020
     14 C          67.8691   94.6261    8.4210 C.ar    1  UNL1        0.0296
     15 C          67.9816   93.2556    9.0202 C.ar    1  UNL1        0.1399
     16 F          68.6461   92.1528    8.2504 F       1  UNL1       -0.2042
     17 C          67.4297   92.9877   10.3889 C.ar    1  UNL1        0.0267
     18 C          61.0926   89.4671   10.0800 C.3     1  UNL1        0.2320
     19 O          61.4367   88.3346    9.1586 O.3     1  UNL1       -0.4705
     20 C          61.9248   87.0323    9.7206 C.ar    1  UNL1        0.1421
     21 C          62.5355   86.0057    8.8132 C.ar    1  UNL1        0.0371
     22 C          63.0235   84.7035    9.3752 C.ar    1  UNL1        0.0059
     23 C          62.9010   84.4278   10.8446 C.ar    1  UNL1        0.0335
     24 C          63.3891   83.1255   11.4066 C.ar    1  UNL1        0.0163
     25 C          63.2665   82.8497   12.8759 C.ar    1  UNL1        0.0805
     26 C          62.6559   83.8764   13.7833 C.ar    1  UNL1        0.3457
     27 O          62.5333   83.6006   15.2526 O.2     1  UNL1       -0.2445
     28 O          62.1678   85.1786   13.2213 O.2     1  UNL1       -0.4209
     29 C          62.2903   85.4543   11.7519 C.ar    1  UNL1        0.1515
     30 C          61.8023   86.7566   11.1899 C.ar    1  UNL1        0.0745
     31 C          63.9997   82.0989   10.4992 C.3     1  UNL1        0.1639
     32 O          63.2364   80.8549   10.1530 O.3     1  UNL1       -0.3772
     33 H          63.1172   80.3161   10.9507 H       1  UNL1        0.2109
@<TRIPOS>BOND
     1     8     9    1
     2     9     7    1
     3     7     1    1
     4     1     2   ar
     5     2     3   ar
     6     3     4   ar
     7     4    18    1
     8    18    19    1
     9    19    20    1
    10    20    21   ar
    11    21    22   ar
    12    22    23   ar
    13    23    24   ar
    14    24    31    1
    15    31    32    1
    16    24    25   ar
    17    25    26   ar
    18    26    27    2
    19    26    28   ar
    20    28    29   ar
    21    29    30   ar
    22     4     5   ar
    23     5     6   ar
    24     9    10    1
    25    10    11    1
    26    11    12   ar
    27    12    13   ar
    28    13    14   ar
    29    14    15   ar
    30    15    16    1
    31    15    17   ar
    32     6     1   ar
    33    17    11   ar
    34    30    20   ar
    35    29    23   ar
    36    32    33    1
@<TRIPOS>MOLECULE
*****
 33 36 0 0 0
SMALL
GASTEIGER

@<TRIPOS>ATOM
      1 C          63.8533   84.2460   15.1365 C.ar    1  UNL1       -0.0062
      2 C          62.7586   84.3621   16.1554 C.ar    1  UNL1       -0.0031
      3 C          62.4469   85.6931   16.7729 C.ar    1  UNL1       -0.0010
      4 C          63.2299   86.9079   16.3715 C.ar    1  UNL1        0.0211
      5 C          64.3246   86.7918   15.3526 C.ar    1  UNL1       -0.0010
      6 C          64.6363   85.4608   14.7351 C.ar    1  UNL1       -0.0031
      7 C          64.1650   82.9149   14.5190 C.3     1  UNL1        0.0994
      8 C          62.1079   81.6715   13.5331 C.3     1  UNL1        0.0902
      9 N          63.3821   82.4370   13.3322 N.3     1  UNL1       -0.2639
     10 C          63.8734   82.7245   11.9444 C.3     1  UNL1        0.0995
     11 C          63.2795   83.8552   11.1578 C.ar    1  UNL1       -0.0039
     12 C          62.4122   84.8702   11.8414 C.ar    1  UNL1       -0.0028
     13 C          61.8183   86.0010   11.0547 C.ar    1  UNL1        0.0020
     14 C          62.0918   86.1165    9.5844 C.ar    1  UNL1        0.0296
     15 C          62.9591   85.1015    8.9007 C.ar    1  UNL1        0.1399
     16 F          63.2325   85.2171    7.4304 F       1  UNL1       -0.2042
     17 C          63.5530   83.9708    9.6874 C.ar    1  UNL1        0.0267
     18 C          62.9182   88.2390   16.9890 C.3     1  UNL1        0.2320
     19 O          62.4773   89.3823   16.1239 O.3     1  UNL1       -0.4705
     20 C          63.4917   90.3388   15.5705 C.ar    1  UNL1        0.1421
     21 C          64.3688   91.1230   16.5009 C.ar    1  UNL1        0.0371
     22 C          65.3832   92.0795   15.9475 C.ar    1  UNL1        0.0059
     23 C          65.5204   92.2516   14.4637 C.ar    1  UNL1        0.0335
     24 C          66.5349   93.2081   13.9104 C.ar    1  UNL1        0.0163
     25 C          66.6721   93.3802   12.4266 C.ar    1  UNL1        0.0805
     26 C          65.7950   92.5959   11.4962 C.ar    1  UNL1        0.3457
     27 O          65.9323   92.7681   10.0125 O.2     1  UNL1       -0.2445
     28 O          64.7806   91.6395   12.0496 O.2     1  UNL1       -0.4209
     29 C          64.6434   91.4673   13.5334 C.ar    1  UNL1        0.1515
     30 C          63.6290   90.5109   14.0868 C.ar    1  UNL1        0.0745
     31 C          67.4119   93.9924   14.8407 C.3     1  UNL1        0.1639
     32 O          68.6826   93.3885   15.3611 O.3     1  UNL1       -0.3772
     33 H          68.4715   92.6347   15.9339 H       1  UNL1        0.2109
@<TRIPOS>BOND
     1     8     9    1
     2     9     7    1
     3     7     1    1
     4     1     2   ar
     5     2     3   ar
     6     3     4   ar
     7     4    18    1
     8    18    19    1
     9    19    20    1
    10    20    21   ar
    11    21    22   ar
    12    22    23   ar
    13    23    24   ar
    14    24    31    1
    15    31    32    1
    16    24    25   ar
    17    25    26   ar
    18    26    27    2
    19    26    28   ar
    20    28    29   ar
    21    29    30   ar
    22     4     5   ar
    23     5     6   ar
    24     9    10    1
    25    10    11    1
    26    11    12   ar
    27    12    13   ar
    28    13    14   ar
    29    14    15   ar
    30    15    16    1
    31    15    17   ar
    32     6     1   ar
    33    17    11   ar
    34    30    20   ar
    35    29    23   ar
    36    32    33    1
@<TRIPOS>MOLECULE
*****
 33 36 0 0 0
SMALL
GASTEIGER

@<TRIPOS>ATOM
      1 C          64.0167   84.3673   14.8188 C.ar    1  UNL1       -0.0062
      2 C          62.8425   84.3694   15.7521 C.ar    1  UNL1       -0.0031
      3 C          62.4713   85.6229   16.4874 C.ar    1  UNL1       -0.0010
      4 C          63.2741   86.8744   16.2893 C.ar    1  UNL1        0.0211
      5 C          64.4483   86.8723   15.3559 C.ar    1  UNL1       -0.0010
      6 C          64.8196   85.6187   14.6206 C.ar    1  UNL1       -0.0031
      7 C          64.3880   83.1137   14.0834 C.3     1  UNL1        0.0994
      8 C          62.2514   81.8630   13.2959 C.3     1  UNL1        0.0902
      9 N          63.5134   82.6074   12.9750 N.3     1  UNL1       -0.2639
     10 C          63.9009   82.8454   11.5456 C.3     1  UNL1        0.0995
     11 C          63.2760   83.9715   10.7766 C.ar    1  UNL1       -0.0039
     12 C          63.6194   84.1737    9.3306 C.ar    1  UNL1       -0.0028
     13 C          62.9944   85.2999    8.5617 C.ar    1  UNL1        0.0020
     14 C          62.0260   86.2238    9.2388 C.ar    1  UNL1        0.0296
     15 C          61.6826   86.0216   10.6849 C.ar    1  UNL1        0.1399
     16 F          60.7141   86.9456   11.3621 F       1  UNL1       -0.2042
     17 C          62.3075   84.8955   11.4538 C.ar    1  UNL1        0.0267
     18 C          62.9028   88.1280   17.0247 C.3     1  UNL1        0.2320
     19 O          63.6331   89.4074   16.7423 O.3     1  UNL1       -0.4705
     20 C          63.7125   89.9318   15.3391 C.ar    1  UNL1        0.1421
     21 C          62.6479   89.5759   14.3442 C.ar    1  UNL1        0.0371
     22 C          62.7273   90.1003   12.9411 C.ar    1  UNL1        0.0059
     23 C          63.8713   90.9805   12.5330 C.ar    1  UNL1        0.0335
     24 C          63.9506   91.5049   11.1298 C.ar    1  UNL1        0.0163
     25 C          65.0946   92.3851   10.7217 C.ar    1  UNL1        0.0805
     26 C          66.1592   92.7409   11.7167 C.ar    1  UNL1        0.3457
     27 O          67.3032   93.6211   11.3086 O.2     1  UNL1       -0.2445
     28 O          66.0798   92.2165   13.1198 O.2     1  UNL1       -0.4209
     29 C          64.9358   91.3363   13.5279 C.ar    1  UNL1        0.1515
     30 C          64.8564   90.8119   14.9310 C.ar    1  UNL1        0.0745
     31 C          62.8860   91.1490   10.1349 C.3     1  UNL1        0.1639
     32 O          62.5254   89.7114    9.9041 O.3     1  UNL1       -0.3772
     33 H          63.2798   89.2485    9.5072 H       1  UNL1        0.2109
@<TRIPOS>BOND
     1     8     9    1
     2     9     7    1
     3     7     1    1
     4     1     2   ar
     5     2     3   ar
     6     3     4   ar
     7     4    18    1
     8    18    19    1
     9    19    20    1
    10    20    21   ar
    11    21    22   ar
    12    22    23   ar
    13    23    24   ar
    14    24    31    1
    15    31    32    1
    16    24    25   ar
    17    25    26   ar
    18    26    27    2
    19    26    28   ar
    20    28    29   ar
    21    29    30   ar
    22     4     5   ar
    23     5     6   ar
    24     9    10    1
    25    10    11    1
    26    11    12   ar
    27    12    13   ar
    28    13    14   ar
    29    14    15   ar
    30    15    16    1
    31    15    17   ar
    32     6     1   ar
    33    17    11   ar
    34    30    20   ar
    35    29    23   ar
    36    32    33    1
