@<TRIPOS>MOLECULE
*****
 32 35 0 0 0
SMALL
GASTEIGER

@<TRIPOS>ATOM
      1 C          63.5030   88.6615   12.7209 C.2     1  UNL1        0.0681
      2 N          63.8798   87.4099   13.4570 N.2     1  UNL1       -0.2479
      3 C          63.4036   86.0071   13.2212 C.ar    1  UNL1        0.0940
      4 C          64.0316   85.0459   14.1864 C.ar    1  UNL1        0.0160
      5 C          63.6892   83.5869   14.1217 C.ar    1  UNL1       -0.0164
      6 C          64.3171   82.6255   15.0868 C.3     1  UNL1        0.0310
      7 C          62.7189   83.0892   13.0917 C.ar    1  UNL1        0.0688
      8 C          62.0909   84.0505   12.1265 C.ar    1  UNL1        0.0197
      9 C          62.4333   85.5095   12.1913 C.ar    1  UNL1        0.0681
     10 N          61.6994   86.2917   11.1427 N.am    1  UNL1       -0.2824
     11 C          61.7546   87.7647   10.8651 C.2     1  UNL1        0.2322
     12 O          60.8931   88.2469    9.7358 O.2     1  UNL1       -0.2744
     13 C          62.5573   88.8194   11.5675 C.3     1  UNL1        0.1309
     14 H          61.1026   85.7692   10.5596 H       1  UNL1        0.1549
     15 C          65.5160   92.0818   12.7093 C.ar    1  UNL1        0.0001
     16 C          65.4707   92.4423   14.1646 C.ar    1  UNL1        0.0000
     17 C          64.7695   91.5426   15.1387 C.ar    1  UNL1        0.0000
     18 C          64.1136   90.2823   14.6574 C.ar    1  UNL1        0.0012
     19 C          64.1589   89.9218   13.2021 C.ar    1  UNL1        0.0140
     20 C          64.8601   90.8215   12.2280 C.ar    1  UNL1        0.0012
     21 C          68.7388   92.7129    8.6824 C.3     1  UNL1        0.0521
     22 C          67.8285   93.2971    9.7217 C.ar    1  UNL1        0.0590
     23 C          67.1274   92.3973   10.6959 C.ar    1  UNL1        0.0147
     24 C          66.2171   92.9815   11.7352 C.ar    1  UNL1        0.0023
     25 C          66.0080   94.4654   11.8004 C.ar    1  UNL1        0.0147
     26 C          66.7091   95.3652   10.8263 C.ar    1  UNL1        0.0590
     27 C          66.5000   96.8491   10.8916 C.3     1  UNL1        0.0521
     28 N          67.6194   94.7810    9.7870 N.ar    1  UNL1       -0.2540
     29 C          62.3764   81.6303   13.0269 C.3     1  UNL1        0.4183
     30 F          62.0341   80.1713   12.9620 F       1  UNL1       -0.1659
     31 F          61.3447   81.8247   14.0982 F       1  UNL1       -0.1659
     32 F          63.4082   81.4357   11.9555 F       1  UNL1       -0.1659
@<TRIPOS>BOND
     1    21    22    1
     2    22    23   ar
     3    23    24   ar
     4    24    15    1
     5    15    16   ar
     6    16    17   ar
     7    17    18   ar
     8    18    19   ar
     9    19     1    1
    10     1     2    2
    11     2     3    1
    12     3     4   ar
    13     4     5   ar
    14     5     6    1
    15     5     7   ar
    16     7    29    1
    17    29    30    1
    18    29    31    1
    19    29    32    1
    20     7     8   ar
    21     8     9   ar
    22     9    10    1
    23    10    11   am
    24    11    12    2
    25    11    13    1
    26    19    20   ar
    27    24    25   ar
    28    25    26   ar
    29    26    27    1
    30    26    28   ar
    31    28    22   ar
    32    20    15   ar
    33    13     1    1
    34     9     3   ar
    35    10    14    1
@<TRIPOS>MOLECULE
*****
 32 35 0 0 0
SMALL
GASTEIGER

@<TRIPOS>ATOM
      1 C          63.2689   87.5925   13.1457 C.2     1  UNL1        0.0681
      2 N          63.1415   86.3133   12.3727 N.2     1  UNL1       -0.2479
      3 C          63.0513   84.9100   12.8950 C.ar    1  UNL1        0.0940
      4 C          62.9336   83.9160   11.7779 C.ar    1  UNL1        0.0160
      5 C          62.8309   82.4513   12.0848 C.ar    1  UNL1       -0.0164
      6 C          62.7132   81.4573   10.9677 C.3     1  UNL1        0.0310
      7 C          62.8460   81.9807   13.5090 C.ar    1  UNL1        0.0688
      8 C          62.9637   82.9748   14.6262 C.ar    1  UNL1        0.0197
      9 C          63.0664   84.4394   14.3191 C.ar    1  UNL1        0.0681
     10 N          63.1752   85.2558   15.5728 N.am    1  UNL1       -0.2824
     11 C          63.2959   86.7445   15.7119 C.2     1  UNL1        0.2322
     12 O          63.3870   87.2616   17.1170 O.2     1  UNL1       -0.2744
     13 C          63.3376   87.7843   14.6317 C.3     1  UNL1        0.1309
     14 H          63.1662   84.7473   16.4158 H       1  UNL1        0.1549
     15 C          64.2807   91.2349   11.9375 C.ar    1  UNL1        0.0001
     16 C          63.4715   91.3513   10.6798 C.ar    1  UNL1        0.0000
     17 C          62.5948   90.2148   10.2441 C.ar    1  UNL1        0.0000
     18 C          62.5273   88.9619   11.0661 C.ar    1  UNL1        0.0012
     19 C          63.3364   88.8455   12.3238 C.ar    1  UNL1        0.0140
     20 C          64.2131   89.9819   12.7595 C.ar    1  UNL1        0.0012
     21 C          66.4528   95.8602   10.9949 C.3     1  UNL1        0.0521
     22 C          66.2435   94.6840   11.9019 C.ar    1  UNL1        0.0590
     23 C          65.3667   93.5475   11.4662 C.ar    1  UNL1        0.0147
     24 C          65.1574   92.3713   12.3732 C.ar    1  UNL1        0.0023
     25 C          65.8247   92.3315   13.7160 C.ar    1  UNL1        0.0147
     26 C          66.7014   93.4680   14.1518 C.ar    1  UNL1        0.0590
     27 C          67.3688   93.4281   15.4946 C.3     1  UNL1        0.0521
     28 N          66.9108   94.6442   13.2447 N.ar    1  UNL1       -0.2540
     29 C          62.7433   80.5161   13.8161 C.3     1  UNL1        0.4183
     30 F          62.6405   79.0515   14.1232 F       1  UNL1       -0.1659
     31 F          64.2392   80.4231   13.8732 F       1  UNL1       -0.1659
     32 F          61.2472   80.6091   13.7590 F       1  UNL1       -0.1659
@<TRIPOS>BOND
     1    21    22    1
     2    22    23   ar
     3    23    24   ar
     4    24    15    1
     5    15    16   ar
     6    16    17   ar
     7    17    18   ar
     8    18    19   ar
     9    19     1    1
    10     1     2    2
    11     2     3    1
    12     3     4   ar
    13     4     5   ar
    14     5     6    1
    15     5     7   ar
    16     7    29    1
    17    29    30    1
    18    29    31    1
    19    29    32    1
    20     7     8   ar
    21     8     9   ar
    22     9    10    1
    23    10    11   am
    24    11    12    2
    25    11    13    1
    26    19    20   ar
    27    24    25   ar
    28    25    26   ar
    29    26    27    1
    30    26    28   ar
    31    28    22   ar
    32    20    15   ar
    33    13     1    1
    34     9     3   ar
    35    10    14    1
@<TRIPOS>MOLECULE
*****
 32 35 0 0 0
SMALL
GASTEIGER

@<TRIPOS>ATOM
      1 C          63.2719   87.6078   13.1494 C.2     1  UNL1        0.0681
      2 N          63.1361   86.3279   12.3789 N.2     1  UNL1       -0.2479
      3 C          63.0452   84.9256   12.9036 C.ar    1  UNL1        0.0940
      4 C          62.9178   83.9305   11.7885 C.ar    1  UNL1        0.0160
      5 C          62.8128   82.4665   12.0981 C.ar    1  UNL1       -0.0164
      6 C          62.6854   81.4713   10.9831 C.3     1  UNL1        0.0310
      7 C          62.8353   81.9977   13.5228 C.ar    1  UNL1        0.0688
      8 C          62.9627   82.9929   14.6379 C.ar    1  UNL1        0.0197
      9 C          63.0677   84.4569   14.3283 C.ar    1  UNL1        0.0681
     10 N          63.1866   85.2746   15.5802 N.am    1  UNL1       -0.2824
     11 C          63.3123   86.7631   15.7165 C.2     1  UNL1        0.2322
     12 O          63.4136   87.2818   17.1203 O.2     1  UNL1       -0.2744
     13 C          63.3503   87.8014   14.6346 C.3     1  UNL1        0.1309
     14 H          63.1813   84.7673   16.4239 H       1  UNL1        0.1549
     15 C          64.2800   91.2490   11.9346 C.ar    1  UNL1        0.0001
     16 C          63.4700   91.3628   10.6773 C.ar    1  UNL1        0.0000
     17 C          62.5938   90.2249   10.2440 C.ar    1  UNL1        0.0000
     18 C          62.5279   88.9733   11.0681 C.ar    1  UNL1        0.0012
     19 C          63.3379   88.8595   12.3254 C.ar    1  UNL1        0.0140
     20 C          64.2140   89.9973   12.7587 C.ar    1  UNL1        0.0012
     21 C          67.3783   93.4453   15.4811 C.3     1  UNL1        0.0521
     22 C          66.7053   93.4850   14.1411 C.ar    1  UNL1        0.0590
     23 C          65.8292   92.3471   13.7078 C.ar    1  UNL1        0.0147
     24 C          65.1561   92.3868   12.3679 C.ar    1  UNL1        0.0023
     25 C          65.3591   93.5644   11.4612 C.ar    1  UNL1        0.0147
     26 C          66.2353   94.7023   11.8945 C.ar    1  UNL1        0.0590
     27 C          66.4383   95.8799   10.9878 C.3     1  UNL1        0.0521
     28 N          66.9083   94.6626   13.2344 N.ar    1  UNL1       -0.2540
     29 C          62.7304   80.5338   13.8325 C.3     1  UNL1        0.4183
     30 F          62.6253   79.0699   14.1422 F       1  UNL1       -0.1659
     31 F          64.2262   80.4382   13.8878 F       1  UNL1       -0.1659
     32 F          61.2344   80.6294   13.7771 F       1  UNL1       -0.1659
@<TRIPOS>BOND
     1    21    22    1
     2    22    23   ar
     3    23    24   ar
     4    24    15    1
     5    15    16   ar
     6    16    17   ar
     7    17    18   ar
     8    18    19   ar
     9    19     1    1
    10     1     2    2
    11     2     3    1
    12     3     4   ar
    13     4     5   ar
    14     5     6    1
    15     5     7   ar
    16     7    29    1
    17    29    30    1
    18    29    31    1
    19    29    32    1
    20     7     8   ar
    21     8     9   ar
    22     9    10    1
    23    10    11   am
    24    11    12    2
    25    11    13    1
    26    19    20   ar
    27    24    25   ar
    28    25    26   ar
    29    26    27    1
    30    26    28   ar
    31    28    22   ar
    32    20    15   ar
    33    13     1    1
    34     9     3   ar
    35    10    14    1
@<TRIPOS>MOLECULE
*****
 32 35 0 0 0
SMALL
GASTEIGER

@<TRIPOS>ATOM
      1 C          62.4081   87.0223   10.5367 C.2     1  UNL1        0.0681
      2 N          62.3863   86.2963   11.8492 N.2     1  UNL1       -0.2479
      3 C          62.5344   84.8260   12.1073 C.ar    1  UNL1        0.0940
      4 C          62.4526   84.5160   13.5726 C.ar    1  UNL1        0.0160
      5 C          62.5773   83.0985   14.0474 C.ar    1  UNL1       -0.0164
      6 C          62.4956   82.7884   15.5126 C.3     1  UNL1        0.0310
      7 C          62.7838   81.9912   13.0568 C.ar    1  UNL1        0.0688
      8 C          62.8656   82.3013   11.5914 C.ar    1  UNL1        0.0197
      9 C          62.7409   83.7188   11.1167 C.ar    1  UNL1        0.0681
     10 N          62.8502   83.8082    9.6234 N.am    1  UNL1       -0.2824
     11 C          62.7801   85.0269    8.7518 C.2     1  UNL1        0.2322
     12 O          62.9261   84.7831    7.2790 O.2     1  UNL1       -0.2744
     13 C          62.5833   86.4574    9.1584 C.3     1  UNL1        0.1309
     14 H          62.9859   82.9539    9.1531 H       1  UNL1        0.1549
     15 C          63.1879   90.8650   11.1499 C.ar    1  UNL1        0.0001
     16 C          61.8773   91.4850   10.7652 C.ar    1  UNL1        0.0000
     17 C          60.7436   90.6175   10.3044 C.ar    1  UNL1        0.0000
     18 C          60.9207   89.1299   10.2283 C.ar    1  UNL1        0.0012
     19 C          62.2312   88.5098   10.6129 C.ar    1  UNL1        0.0140
     20 C          63.3648   89.3773   11.0737 C.ar    1  UNL1        0.0012
     21 C          66.3869   92.4631   14.9198 C.3     1  UNL1        0.0521
     22 C          65.9210   92.5315   13.4956 C.ar    1  UNL1        0.0590
     23 C          64.7874   91.6640   13.0348 C.ar    1  UNL1        0.0147
     24 C          64.3215   91.7324   11.6107 C.ar    1  UNL1        0.0023
     25 C          64.9892   92.6684   10.6472 C.ar    1  UNL1        0.0147
     26 C          66.1229   93.5359   11.1080 C.ar    1  UNL1        0.0590
     27 C          66.7906   94.4718   10.1446 C.3     1  UNL1        0.0521
     28 N          66.5887   93.4674   12.5322 N.ar    1  UNL1       -0.2540
     29 C          62.9085   80.5738   13.5314 C.3     1  UNL1        0.4183
     30 F          63.0331   79.1563   14.0061 F       1  UNL1       -0.1659
     31 F          64.3951   80.7409   13.6402 F       1  UNL1       -0.1659
     32 F          61.4218   80.4066   13.4226 F       1  UNL1       -0.1659
@<TRIPOS>BOND
     1    21    22    1
     2    22    23   ar
     3    23    24   ar
     4    24    15    1
     5    15    16   ar
     6    16    17   ar
     7    17    18   ar
     8    18    19   ar
     9    19     1    1
    10     1     2    2
    11     2     3    1
    12     3     4   ar
    13     4     5   ar
    14     5     6    1
    15     5     7   ar
    16     7    29    1
    17    29    30    1
    18    29    31    1
    19    29    32    1
    20     7     8   ar
    21     8     9   ar
    22     9    10    1
    23    10    11   am
    24    11    12    2
    25    11    13    1
    26    19    20   ar
    27    24    25   ar
    28    25    26   ar
    29    26    27    1
    30    26    28   ar
    31    28    22   ar
    32    20    15   ar
    33    13     1    1
    34     9     3   ar
    35    10    14    1
@<TRIPOS>MOLECULE
*****
 32 35 0 0 0
SMALL
GASTEIGER

@<TRIPOS>ATOM
      1 C          63.2714   87.5362   13.2572 C.2     1  UNL1        0.0681
      2 N          63.5270   86.1262   13.7008 N.2     1  UNL1       -0.2479
      3 C          63.3311   84.8536   12.9312 C.ar    1  UNL1        0.0940
      4 C          63.7093   83.6547   13.7495 C.ar    1  UNL1        0.0160
      5 C          63.5876   82.2788   13.1646 C.ar    1  UNL1       -0.0164
      6 C          63.9658   81.0798   13.9828 C.3     1  UNL1        0.0310
      7 C          63.0877   82.1018   11.7615 C.ar    1  UNL1        0.0688
      8 C          62.7095   83.3008   10.9432 C.ar    1  UNL1        0.0197
      9 C          62.8312   84.6767   11.5282 C.ar    1  UNL1        0.0681
     10 N          62.4037   85.7286   10.5480 N.am    1  UNL1       -0.2824
     11 C          62.3706   87.2173   10.7289 C.2     1  UNL1        0.2322
     12 O          61.8874   88.0058    9.5479 O.2     1  UNL1       -0.2744
     13 C          62.7567   88.0217   11.9347 C.3     1  UNL1        0.1309
     14 H          62.1055   85.3983    9.6698 H       1  UNL1        0.1549
     15 C          64.7693   90.8111   14.9252 C.ar    1  UNL1        0.0001
     16 C          64.1669   90.7316   16.2966 C.ar    1  UNL1        0.0000
     17 C          63.2659   89.5870   16.6549 C.ar    1  UNL1        0.0000
     18 C          62.9675   88.5219   15.6417 C.ar    1  UNL1        0.0012
     19 C          63.5699   88.6014   14.2703 C.ar    1  UNL1        0.0140
     20 C          64.4708   89.7459   13.9120 C.ar    1  UNL1        0.0012
     21 C          68.7263   93.9643   16.1080 C.3     1  UNL1        0.0521
     22 C          67.6487   93.5322   15.1582 C.ar    1  UNL1        0.0590
     23 C          66.7478   92.3876   15.5166 C.ar    1  UNL1        0.0147
     24 C          65.6702   91.9556   14.5668 C.ar    1  UNL1        0.0023
     25 C          65.4934   92.6680   13.2587 C.ar    1  UNL1        0.0147
     26 C          66.3943   93.8126   12.9003 C.ar    1  UNL1        0.0590
     27 C          66.2175   94.5250   11.5922 C.3     1  UNL1        0.0521
     28 N          67.4719   94.2447   13.8501 N.ar    1  UNL1       -0.2540
     29 C          62.9660   80.7260   11.1765 C.3     1  UNL1        0.4183
     30 F          62.8443   79.3501   10.5915 F       1  UNL1       -0.1659
     31 F          62.1480   80.2960   12.3579 F       1  UNL1       -0.1659
     32 F          63.7841   81.1560    9.9950 F       1  UNL1       -0.1659
@<TRIPOS>BOND
     1    21    22    1
     2    22    23   ar
     3    23    24   ar
     4    24    15    1
     5    15    16   ar
     6    16    17   ar
     7    17    18   ar
     8    18    19   ar
     9    19     1    1
    10     1     2    2
    11     2     3    1
    12     3     4   ar
    13     4     5   ar
    14     5     6    1
    15     5     7   ar
    16     7    29    1
    17    29    30    1
    18    29    31    1
    19    29    32    1
    20     7     8   ar
    21     8     9   ar
    22     9    10    1
    23    10    11   am
    24    11    12    2
    25    11    13    1
    26    19    20   ar
    27    24    25   ar
    28    25    26   ar
    29    26    27    1
    30    26    28   ar
    31    28    22   ar
    32    20    15   ar
    33    13     1    1
    34     9     3   ar
    35    10    14    1
@<TRIPOS>MOLECULE
*****
 32 35 0 0 0
SMALL
GASTEIGER

@<TRIPOS>ATOM
      1 C          63.7863   88.8630   13.1145 C.2     1  UNL1        0.0681
      2 N          64.7246   89.9155   13.6262 N.2     1  UNL1       -0.2479
      3 C          65.0636   91.2431   13.0156 C.ar    1  UNL1        0.0940
      4 C          66.0530   91.9956   13.8551 C.ar    1  UNL1        0.0160
      5 C          66.5268   93.3512   13.4214 C.ar    1  UNL1       -0.0164
      6 C          67.5161   94.1039   14.2608 C.3     1  UNL1        0.0310
      7 C          66.0111   93.9541   12.1484 C.ar    1  UNL1        0.0688
      8 C          65.0217   93.2015   11.3090 C.ar    1  UNL1        0.0197
      9 C          64.5479   91.8459   11.7427 C.ar    1  UNL1        0.0681
     10 N          63.5660   91.2702   10.7657 N.am    1  UNL1       -0.2824
     11 C          62.8571   89.9494   10.8206 C.2     1  UNL1        0.2322
     12 O          61.9273   89.6619    9.6793 O.2     1  UNL1       -0.2744
     13 C          62.9552   88.8781   11.8660 C.3     1  UNL1        0.1309
     14 H          63.3594   91.8338    9.9854 H       1  UNL1        0.1549
     15 C          63.2800   85.0714   14.1721 C.ar    1  UNL1        0.0001
     16 C          63.4158   85.1723   15.6625 C.ar    1  UNL1        0.0000
     17 C          63.6751   86.5035   16.3036 C.ar    1  UNL1        0.0000
     18 C          63.7986   87.7336   15.4542 C.ar    1  UNL1        0.0012
     19 C          63.6628   87.6327   13.9638 C.ar    1  UNL1        0.0140
     20 C          63.4035   86.3017   13.3227 C.ar    1  UNL1        0.0012
     21 C          61.0239   80.3917   14.2719 C.3     1  UNL1        0.0521
     22 C          61.8927   81.4005   13.5809 C.ar    1  UNL1        0.0590
     23 C          62.1520   82.7316   14.2220 C.ar    1  UNL1        0.0147
     24 C          63.0207   83.7404   13.5310 C.ar    1  UNL1        0.0023
     25 C          63.6302   83.4182   12.1988 C.ar    1  UNL1        0.0147
     26 C          63.3709   82.0871   11.5576 C.ar    1  UNL1        0.0590
     27 C          63.9804   81.7650   10.2254 C.3     1  UNL1        0.0521
     28 N          62.5022   81.0783   12.2487 N.ar    1  UNL1       -0.2540
     29 C          66.4848   95.3097   11.7147 C.3     1  UNL1        0.4183
     30 F          66.9586   96.6652   11.2809 F       1  UNL1       -0.1659
     31 F          65.9272   95.9070   12.9725 F       1  UNL1       -0.1659
     32 F          67.0424   94.7123   10.4568 F       1  UNL1       -0.1659
@<TRIPOS>BOND
     1    21    22    1
     2    22    23   ar
     3    23    24   ar
     4    24    15    1
     5    15    16   ar
     6    16    17   ar
     7    17    18   ar
     8    18    19   ar
     9    19     1    1
    10     1     2    2
    11     2     3    1
    12     3     4   ar
    13     4     5   ar
    14     5     6    1
    15     5     7   ar
    16     7    29    1
    17    29    30    1
    18    29    31    1
    19    29    32    1
    20     7     8   ar
    21     8     9   ar
    22     9    10    1
    23    10    11   am
    24    11    12    2
    25    11    13    1
    26    19    20   ar
    27    24    25   ar
    28    25    26   ar
    29    26    27    1
    30    26    28   ar
    31    28    22   ar
    32    20    15   ar
    33    13     1    1
    34     9     3   ar
    35    10    14    1
@<TRIPOS>MOLECULE
*****
 32 35 0 0 0
SMALL
GASTEIGER

@<TRIPOS>ATOM
      1 C          63.4651   87.5272   13.4965 C.2     1  UNL1        0.0681
      2 N          62.7514   87.9247   12.2384 N.2     1  UNL1       -0.2479
      3 C          62.3659   87.0657   11.0706 C.ar    1  UNL1        0.0940
      4 C          61.6616   87.8629   10.0130 C.ar    1  UNL1        0.0160
      5 C          61.1901   87.1914    8.7573 C.ar    1  UNL1       -0.0164
      6 C          60.4858   87.9885    7.6996 C.3     1  UNL1        0.0310
      7 C          61.4230   85.7229    8.5591 C.ar    1  UNL1        0.0688
      8 C          62.1274   84.9258    9.6168 C.ar    1  UNL1        0.0197
      9 C          62.5988   85.5973   10.8726 C.ar    1  UNL1        0.0681
     10 N          63.2747   84.6250   11.7933 N.am    1  UNL1       -0.2824
     11 C          63.8847   84.8810   13.1395 C.2     1  UNL1        0.2322
     12 O          64.4900   83.6877   13.8173 O.2     1  UNL1       -0.2744
     13 C          63.9694   86.1727   13.8975 C.3     1  UNL1        0.1309
     14 H          63.3246   83.6959   11.4714 H       1  UNL1        0.1549
     15 C          64.8444   90.8799   15.1112 C.ar    1  UNL1        0.0001
     16 C          64.1884   90.8360   16.4594 C.ar    1  UNL1        0.0000
     17 C          63.2914   89.6891   16.8201 C.ar    1  UNL1        0.0000
     18 C          63.0503   88.5862   15.8324 C.ar    1  UNL1        0.0012
     19 C          63.7062   88.6301   14.4841 C.ar    1  UNL1        0.0140
     20 C          64.6033   89.7769   14.1235 C.ar    1  UNL1        0.0012
     21 C          68.8249   94.0148   16.2638 C.3     1  UNL1        0.0521
     22 C          67.7316   93.5942   15.3268 C.ar    1  UNL1        0.0590
     23 C          66.8346   92.4473   15.6875 C.ar    1  UNL1        0.0147
     24 C          65.7414   92.0267   14.7505 C.ar    1  UNL1        0.0023
     25 C          65.5451   92.7530   13.4528 C.ar    1  UNL1        0.0147
     26 C          66.4422   93.8999   13.0921 C.ar    1  UNL1        0.0590
     27 C          66.2459   94.6262   11.7944 C.3     1  UNL1        0.0521
     28 N          67.5354   94.3205   14.0291 N.ar    1  UNL1       -0.2540
     29 C          60.9516   85.0514    7.3034 C.3     1  UNL1        0.4183
     30 F          60.4803   84.3799    6.0477 F       1  UNL1       -0.1659
     31 F          59.5428   85.4641    7.6115 F       1  UNL1       -0.1659
     32 F          62.3604   84.6387    6.9953 F       1  UNL1       -0.1659
@<TRIPOS>BOND
     1    21    22    1
     2    22    23   ar
     3    23    24   ar
     4    24    15    1
     5    15    16   ar
     6    16    17   ar
     7    17    18   ar
     8    18    19   ar
     9    19     1    1
    10     1     2    2
    11     2     3    1
    12     3     4   ar
    13     4     5   ar
    14     5     6    1
    15     5     7   ar
    16     7    29    1
    17    29    30    1
    18    29    31    1
    19    29    32    1
    20     7     8   ar
    21     8     9   ar
    22     9    10    1
    23    10    11   am
    24    11    12    2
    25    11    13    1
    26    19    20   ar
    27    24    25   ar
    28    25    26   ar
    29    26    27    1
    30    26    28   ar
    31    28    22   ar
    32    20    15   ar
    33    13     1    1
    34     9     3   ar
    35    10    14    1
@<TRIPOS>MOLECULE
*****
 32 35 0 0 0
SMALL
GASTEIGER

@<TRIPOS>ATOM
      1 C          62.7614   87.8106   11.1199 C.2     1  UNL1        0.0681
      2 N          63.1811   86.9246   12.2553 N.2     1  UNL1       -0.2479
      3 C          62.9462   85.4534   12.4297 C.ar    1  UNL1        0.0940
      4 C          63.5344   84.9532   13.7157 C.ar    1  UNL1        0.0160
      5 C          63.4100   83.5044   14.0839 C.ar    1  UNL1       -0.0164
      6 C          63.9982   83.0042   15.3699 C.3     1  UNL1        0.0310
      7 C          62.6974   82.5558   13.1660 C.ar    1  UNL1        0.0688
      8 C          62.1092   83.0560   11.8800 C.ar    1  UNL1        0.0197
      9 C          62.2336   84.5049   11.5119 C.ar    1  UNL1        0.0681
     10 N          61.5800   84.7932   10.1929 N.am    1  UNL1       -0.2824
     11 C          61.4775   86.1013    9.4660 C.2     1  UNL1        0.2322
     12 O          60.7534   86.0612    8.1530 O.2     1  UNL1       -0.2744
     13 C          62.0033   87.4441    9.8787 C.3     1  UNL1        0.1309
     14 H          61.1631   84.0218    9.7451 H       1  UNL1        0.1549
     15 C          64.3368   91.1614   12.5484 C.ar    1  UNL1        0.0001
     16 C          63.9319   92.1402   11.4864 C.ar    1  UNL1        0.0000
     17 C          63.1368   91.6759   10.3022 C.ar    1  UNL1        0.0000
     18 C          62.7467   90.2326   10.1801 C.ar    1  UNL1        0.0012
     19 C          63.1516   89.2538   11.2421 C.ar    1  UNL1        0.0140
     20 C          63.9467   89.7181   12.4263 C.ar    1  UNL1        0.0012
     21 C          68.8751   92.5758   14.6471 C.3     1  UNL1        0.0521
     22 C          67.4010   92.3329   14.7819 C.ar    1  UNL1        0.0590
     23 C          66.6059   91.8686   13.5977 C.ar    1  UNL1        0.0147
     24 C          65.1319   91.6257   13.7326 C.ar    1  UNL1        0.0023
     25 C          64.4528   91.8471   15.0516 C.ar    1  UNL1        0.0147
     26 C          65.2479   92.3114   16.2359 C.ar    1  UNL1        0.0590
     27 C          64.5688   92.5328   17.5549 C.3     1  UNL1        0.0521
     28 N          66.7219   92.5543   16.1010 N.ar    1  UNL1       -0.2540
     29 C          62.5730   81.1071   13.5341 C.3     1  UNL1        0.4183
     30 F          62.4485   79.6582   13.9023 F       1  UNL1       -0.1659
     31 F          63.8919   80.8267   12.8770 F       1  UNL1       -0.1659
     32 F          61.2541   81.3873   14.1913 F       1  UNL1       -0.1659
@<TRIPOS>BOND
     1    21    22    1
     2    22    23   ar
     3    23    24   ar
     4    24    15    1
     5    15    16   ar
     6    16    17   ar
     7    17    18   ar
     8    18    19   ar
     9    19     1    1
    10     1     2    2
    11     2     3    1
    12     3     4   ar
    13     4     5   ar
    14     5     6    1
    15     5     7   ar
    16     7    29    1
    17    29    30    1
    18    29    31    1
    19    29    32    1
    20     7     8   ar
    21     8     9   ar
    22     9    10    1
    23    10    11   am
    24    11    12    2
    25    11    13    1
    26    19    20   ar
    27    24    25   ar
    28    25    26   ar
    29    26    27    1
    30    26    28   ar
    31    28    22   ar
    32    20    15   ar
    33    13     1    1
    34     9     3   ar
    35    10    14    1
