@<TRIPOS>MOLECULE
*****
 29 31 0 0 0
SMALL
GASTEIGER

@<TRIPOS>ATOM
      1 C          61.5109   89.1800   10.4964 C.3     1  UNL1        0.1812
      2 O          62.7238   88.4365   10.0212 O.3     1  UNL1       -0.3784
      3 H          62.5864   87.4837   10.1407 H       1  UNL1        0.2106
      4 C          60.2979   89.9236   10.9717 C.3     1  UNL1        0.4197
      5 F          59.0849   90.6671   11.4470 F       1  UNL1       -0.1676
      6 F          59.9313   90.2338    9.5506 F       1  UNL1       -0.1676
      7 F          60.6645   89.6134   12.3927 F       1  UNL1       -0.1676
      8 C          60.8566   87.8802   10.8605 C.3     1  UNL1        0.0398
      9 C          61.6632   86.6157   10.8854 C.3     1  UNL1        0.0212
     10 C          60.7801   86.0315    9.8229 C.3     1  UNL1        0.0044
     11 C          62.5463   87.2000   11.9478 C.3     1  UNL1        0.0044
     12 C          62.9421   85.6024    8.3679 C.3     1  UNL1        0.0307
     13 C          63.1092   84.8446    9.6517 C.ar    1  UNL1       -0.0257
     14 C          63.9157   83.5801    9.6766 C.ar    1  UNL1       -0.0023
     15 C          64.0828   82.8223   10.9602 C.ar    1  UNL1        0.0293
     16 C          63.4433   83.3290   12.2190 C.ar    1  UNL1        0.1398
     17 F          63.6103   82.5711   13.5026 F       1  UNL1       -0.2042
     18 C          62.6367   84.5934   12.1941 C.ar    1  UNL1        0.0250
     19 C          62.4697   85.3512   10.9103 C.ar    1  UNL1       -0.0244
     20 C          62.1651   90.4798   10.1325 C.3     1  UNL1        0.0811
     21 C          63.2619   91.0341   10.9925 C.2     1  UNL1        0.0613
     22 C          63.5460   90.6511   12.4148 C.2     1  UNL1        0.0160
     23 C          64.7269   91.4489   12.8827 C.2     1  UNL1        0.0182
     24 C          65.4538   91.4909   14.1941 C.2     1  UNL1        0.0215
     25 C          66.6266   92.4090   14.3724 C.2     1  UNL1        0.0936
     26 N          67.0724   93.2851   13.2394 N.2     1  UNL1       -0.2624
     27 C          66.3454   93.2431   11.9280 C.3     1  UNL1        0.1708
     28 C          65.1727   92.3251   11.7497 C.2     1  UNL1        0.0832
     29 N          64.2672   92.0687   10.5815 N.2     1  UNL1       -0.2519
@<TRIPOS>BOND
     1    12    13    1
     2    13    14   ar
     3    14    15   ar
     4    15    16   ar
     5    16    17    1
     6    16    18   ar
     7    18    19   ar
     8    19     9    1
     9     9    10    1
    10     9    11    1
    11     9     8    1
    12     8     1    1
    13     1     2    1
    14     1    20    1
    15    20    21    1
    16    21    22    2
    17    22    23    1
    18    23    24    2
    19    24    25    1
    20    25    26    2
    21    26    27    1
    22    27    28    1
    23    28    29    2
    24     1     4    1
    25     4     5    1
    26     4     6    1
    27     4     7    1
    28    19    13   ar
    29    29    21    1
    30    28    23    1
    31     2     3    1
@<TRIPOS>MOLECULE
*****
 29 31 0 0 0
SMALL
GASTEIGER

@<TRIPOS>ATOM
      1 C          61.8662   87.0483   10.3309 C.3     1  UNL1        0.1812
      2 O          63.0532   87.1705   11.2398 O.3     1  UNL1       -0.3784
      3 H          63.6083   86.3797   11.1547 H       1  UNL1        0.2106
      4 C          60.6793   86.9262    9.4220 C.3     1  UNL1        0.4197
      5 F          59.4922   86.8040    8.5131 F       1  UNL1       -0.1676
      6 F          61.5542   86.3297    8.3595 F       1  UNL1       -0.1676
      7 F          59.8043   87.5226   10.4844 F       1  UNL1       -0.1676
      8 C          62.3571   85.7079    9.8700 C.3     1  UNL1        0.0398
      9 C          62.6467   84.6301   10.8722 C.3     1  UNL1        0.0212
     10 C          61.5944   85.1925   11.7812 C.3     1  UNL1        0.0044
     11 C          63.6991   84.0677    9.9632 C.3     1  UNL1        0.0044
     12 C          63.8585   85.3345   13.5246 C.3     1  UNL1        0.0307
     13 C          63.5422   83.9044   13.2006 C.ar    1  UNL1       -0.0257
     14 C          63.8319   82.8266   14.2028 C.ar    1  UNL1       -0.0023
     15 C          63.5157   81.3966   13.8787 C.ar    1  UNL1        0.0293
     16 C          62.9098   81.0443   12.5525 C.ar    1  UNL1        0.1398
     17 F          62.5935   79.6143   12.2285 F       1  UNL1       -0.2042
     18 C          62.6201   82.1222   11.5503 C.ar    1  UNL1        0.0250
     19 C          62.9364   83.5523   11.8744 C.ar    1  UNL1       -0.0244
     20 C          61.3753   88.3887   10.7918 C.3     1  UNL1        0.0811
     21 C          62.3546   89.4315   11.2427 C.2     1  UNL1        0.0613
     22 C          63.0033   90.4670   10.3725 C.2     1  UNL1        0.0160
     23 C          63.9068   91.2975   11.2350 C.2     1  UNL1        0.0182
     24 C          64.8000   92.4617   10.9239 C.2     1  UNL1        0.0215
     25 C          65.6030   93.1038   12.0161 C.2     1  UNL1        0.0936
     26 N          65.5128   92.5817   13.4194 N.2     1  UNL1       -0.2624
     27 C          64.6196   91.4175   13.7305 C.3     1  UNL1        0.1708
     28 C          63.8166   90.7754   12.6384 C.2     1  UNL1        0.0832
     29 N          62.8573   89.6222   12.6431 N.2     1  UNL1       -0.2519
@<TRIPOS>BOND
     1    12    13    1
     2    13    14   ar
     3    14    15   ar
     4    15    16   ar
     5    16    17    1
     6    16    18   ar
     7    18    19   ar
     8    19     9    1
     9     9    10    1
    10     9    11    1
    11     9     8    1
    12     8     1    1
    13     1     2    1
    14     1    20    1
    15    20    21    1
    16    21    22    2
    17    22    23    1
    18    23    24    2
    19    24    25    1
    20    25    26    2
    21    26    27    1
    22    27    28    1
    23    28    29    2
    24     1     4    1
    25     4     5    1
    26     4     6    1
    27     4     7    1
    28    19    13   ar
    29    29    21    1
    30    28    23    1
    31     2     3    1
@<TRIPOS>MOLECULE
*****
 29 31 0 0 0
SMALL
GASTEIGER

@<TRIPOS>ATOM
      1 C          61.9592   88.1753   11.1248 C.3     1  UNL1        0.1812
      2 O          63.0763   87.8370   12.0668 O.3     1  UNL1       -0.3784
      3 H          63.2171   88.5754   12.6799 H       1  UNL1        0.2106
      4 C          60.8420   88.5136   10.1827 C.3     1  UNL1        0.4197
      5 F          59.7248   88.8520    9.2407 F       1  UNL1       -0.1676
      6 F          61.6277   87.9353    9.0432 F       1  UNL1       -0.1676
      7 F          60.0564   89.0919   11.3221 F       1  UNL1       -0.1676
      8 C          61.7950   89.5061   11.7973 C.3     1  UNL1        0.0398
      9 C          63.0029   90.2721   12.2493 C.3     1  UNL1        0.0212
     10 C          63.4185   90.4600   10.8203 C.3     1  UNL1        0.0044
     11 C          62.5874   90.0841   13.6782 C.3     1  UNL1        0.0044
     12 C          64.5831   89.3213   14.6155 C.3     1  UNL1        0.0307
     13 C          65.0009   90.5627   13.8843 C.ar    1  UNL1       -0.0257
     14 C          66.2088   91.3286   14.3363 C.ar    1  UNL1       -0.0023
     15 C          66.6266   92.5699   13.6052 C.ar    1  UNL1        0.0293
     16 C          65.8365   93.0453   12.4220 C.ar    1  UNL1        0.1398
     17 F          66.2543   94.2866   11.6909 F       1  UNL1       -0.2042
     18 C          64.6286   92.2794   11.9701 C.ar    1  UNL1        0.0250
     19 C          64.2108   91.0380   12.7012 C.ar    1  UNL1       -0.0244
     20 C          62.1233   86.8446   10.4523 C.3     1  UNL1        0.0811
     21 C          62.4150   85.6218   11.2704 C.2     1  UNL1        0.0613
     22 C          63.0274   84.3487   10.7658 C.2     1  UNL1        0.0160
     23 C          63.1365   83.3974   11.9204 C.2     1  UNL1        0.0182
     24 C          63.6616   81.9958   12.0199 C.2     1  UNL1        0.0215
     25 C          63.6418   81.2792   13.3375 C.2     1  UNL1        0.0936
     26 N          63.0969   81.9642   14.5556 N.2     1  UNL1       -0.2624
     27 C          62.5717   83.3658   14.4562 C.3     1  UNL1        0.1708
     28 C          62.5915   84.0823   13.1386 C.2     1  UNL1        0.0832
     29 N          62.1456   85.4571   12.7368 N.2     1  UNL1       -0.2519
@<TRIPOS>BOND
     1    12    13    1
     2    13    14   ar
     3    14    15   ar
     4    15    16   ar
     5    16    17    1
     6    16    18   ar
     7    18    19   ar
     8    19     9    1
     9     9    10    1
    10     9    11    1
    11     9     8    1
    12     8     1    1
    13     1     2    1
    14     1    20    1
    15    20    21    1
    16    21    22    2
    17    22    23    1
    18    23    24    2
    19    24    25    1
    20    25    26    2
    21    26    27    1
    22    27    28    1
    23    28    29    2
    24     1     4    1
    25     4     5    1
    26     4     6    1
    27     4     7    1
    28    19    13   ar
    29    29    21    1
    30    28    23    1
    31     2     3    1
@<TRIPOS>MOLECULE
*****
 29 31 0 0 0
SMALL
GASTEIGER

@<TRIPOS>ATOM
      1 C          64.0129   90.4478   12.7304 C.3     1  UNL1        0.1812
      2 O          63.9257   90.6062   11.2414 O.3     1  UNL1       -0.3784
      3 H          64.2031   91.5024   10.9948 H       1  UNL1        0.2106
      4 C          64.1000   90.2895   14.2195 C.3     1  UNL1        0.4197
      5 F          64.1871   90.1311   15.7086 F       1  UNL1       -0.1676
      6 F          64.6702   88.9137   14.0398 F       1  UNL1       -0.1676
      7 F          63.5298   91.6651   14.3992 F       1  UNL1       -0.1676
      8 C          64.4987   91.8618   12.8525 C.3     1  UNL1        0.0398
      9 C          65.4796   92.4063   11.8569 C.3     1  UNL1        0.0212
     10 C          66.5668   92.3327   12.8878 C.3     1  UNL1        0.0044
     11 C          64.3925   92.4799   10.8260 C.3     1  UNL1        0.0044
     12 C          65.6556   95.3642   11.3880 C.3     1  UNL1        0.0307
     13 C          66.5486   94.4297   10.6268 C.ar    1  UNL1       -0.0257
     14 C          67.5296   94.9742    9.6312 C.ar    1  UNL1       -0.0023
     15 C          68.4225   94.0398    8.8701 C.ar    1  UNL1        0.0293
     16 C          68.3346   92.5608    9.1045 C.ar    1  UNL1        0.1398
     17 F          69.2275   91.6264    8.3433 F       1  UNL1       -0.2042
     18 C          67.3536   92.0163   10.1001 C.ar    1  UNL1        0.0250
     19 C          66.4606   92.9508   10.8613 C.ar    1  UNL1       -0.0244
     20 C          63.5270   89.0340   12.6085 C.3     1  UNL1        0.0811
     21 C          62.5945   88.6547   11.4966 C.2     1  UNL1        0.0613
     22 C          62.3604   87.2672   10.9767 C.2     1  UNL1        0.0160
     23 C          61.3534   87.3513    9.8681 C.2     1  UNL1        0.0182
     24 C          60.7400   86.3031    8.9878 C.2     1  UNL1        0.0215
     25 C          59.7381   86.6944    7.9422 C.2     1  UNL1        0.0936
     26 N          59.3498   88.1337    7.7769 N.2     1  UNL1       -0.2624
     27 C          59.9633   89.1819    8.6572 C.3     1  UNL1        0.1708
     28 C          60.9651   88.7907    9.7028 C.2     1  UNL1        0.0832
     29 N          61.7321   89.5963   10.7093 N.2     1  UNL1       -0.2519
@<TRIPOS>BOND
     1    12    13    1
     2    13    14   ar
     3    14    15   ar
     4    15    16   ar
     5    16    17    1
     6    16    18   ar
     7    18    19   ar
     8    19     9    1
     9     9    10    1
    10     9    11    1
    11     9     8    1
    12     8     1    1
    13     1     2    1
    14     1    20    1
    15    20    21    1
    16    21    22    2
    17    22    23    1
    18    23    24    2
    19    24    25    1
    20    25    26    2
    21    26    27    1
    22    27    28    1
    23    28    29    2
    24     1     4    1
    25     4     5    1
    26     4     6    1
    27     4     7    1
    28    19    13   ar
    29    29    21    1
    30    28    23    1
    31     2     3    1
@<TRIPOS>MOLECULE
*****
 29 31 0 0 0
SMALL
GASTEIGER

@<TRIPOS>ATOM
      1 C          64.3347   91.1614   12.7707 C.3     1  UNL1        0.1812
      2 O          64.1600   91.4440   11.3080 O.3     1  UNL1       -0.3784
      3 H          63.2500   91.2356   11.0448 H       1  UNL1        0.2106
      4 C          64.5093   90.8788   14.2334 C.3     1  UNL1        0.4197
      5 F          64.6841   90.5962   15.6962 F       1  UNL1       -0.1676
      6 F          63.0572   91.1758   14.4642 F       1  UNL1       -0.1676
      7 F          65.9614   90.5818   14.0026 F       1  UNL1       -0.1676
      8 C          62.9037   90.7196   12.8562 C.3     1  UNL1        0.0398
      9 C          62.3828   89.6775   11.9115 C.3     1  UNL1        0.0212
     10 C          61.5603   90.7204   11.2145 C.3     1  UNL1        0.0044
     11 C          63.2052   88.6345   12.6084 C.3     1  UNL1        0.0044
     12 C          59.4429   89.0909   11.7980 C.3     1  UNL1        0.0307
     13 C          60.3919   88.3420   10.9100 C.ar    1  UNL1       -0.0257
     14 C          59.8710   87.2999    9.9652 C.ar    1  UNL1       -0.0023
     15 C          60.8200   86.5511    9.0772 C.ar    1  UNL1        0.0293
     16 C          62.2900   86.8444    9.1339 C.ar    1  UNL1        0.1398
     17 F          63.2390   86.0956    8.2458 F       1  UNL1       -0.2042
     18 C          62.8109   87.8865   10.0786 C.ar    1  UNL1        0.0250
     19 C          61.8618   88.6353   10.9667 C.ar    1  UNL1       -0.0244
     20 C          65.7656   91.6031   12.6852 C.3     1  UNL1        0.0811
     21 C          66.1531   92.7142   11.7550 C.2     1  UNL1        0.0613
     22 C          66.0450   94.1826   12.0421 C.2     1  UNL1        0.0160
     23 C          66.5419   94.9280   10.8390 C.2     1  UNL1        0.0182
     24 C          66.6699   96.3941   10.5488 C.2     1  UNL1        0.0215
     25 C          67.2131   96.8525    9.2279 C.2     1  UNL1        0.0936
     26 N          67.6284   95.8449    8.1972 N.2     1  UNL1       -0.2624
     27 C          67.5004   94.3788    8.4874 C.3     1  UNL1        0.1708
     28 C          66.9572   93.9204    9.8083 C.2     1  UNL1        0.0832
     29 N          66.7169   92.5522   10.3744 N.2     1  UNL1       -0.2519
@<TRIPOS>BOND
     1    12    13    1
     2    13    14   ar
     3    14    15   ar
     4    15    16   ar
     5    16    17    1
     6    16    18   ar
     7    18    19   ar
     8    19     9    1
     9     9    10    1
    10     9    11    1
    11     9     8    1
    12     8     1    1
    13     1     2    1
    14     1    20    1
    15    20    21    1
    16    21    22    2
    17    22    23    1
    18    23    24    2
    19    24    25    1
    20    25    26    2
    21    26    27    1
    22    27    28    1
    23    28    29    2
    24     1     4    1
    25     4     5    1
    26     4     6    1
    27     4     7    1
    28    19    13   ar
    29    29    21    1
    30    28    23    1
    31     2     3    1
@<TRIPOS>MOLECULE
*****
 29 31 0 0 0
SMALL
GASTEIGER

@<TRIPOS>ATOM
      1 C          60.8971   88.1944    9.9291 C.3     1  UNL1        0.1812
      2 O          61.4766   87.9154   11.2842 O.3     1  UNL1       -0.3784
      3 H          61.7254   88.7517   11.7079 H       1  UNL1        0.2106
      4 C          60.3177   88.4734    8.5740 C.3     1  UNL1        0.4197
      5 F          59.7382   88.7524    7.2188 F       1  UNL1       -0.1676
      6 F          59.7750   89.7791    9.0748 F       1  UNL1       -0.1676
      7 F          60.8603   87.1678    8.0731 F       1  UNL1       -0.1676
      8 C          61.1003   89.6649   10.1449 C.3     1  UNL1        0.0398
      9 C          62.1257   90.1437   11.1294 C.3     1  UNL1        0.0212
     10 C          61.0372   90.7334   11.9764 C.3     1  UNL1        0.0044
     11 C          63.2142   89.5541   10.2824 C.3     1  UNL1        0.0044
     12 C          64.1770   92.1672   10.2940 C.3     1  UNL1        0.0307
     13 C          64.1767   91.6343   11.6962 C.ar    1  UNL1       -0.0257
     14 C          65.2021   92.1132   12.6807 C.ar    1  UNL1       -0.0023
     15 C          65.2019   91.5804   14.0828 C.ar    1  UNL1        0.0293
     16 C          64.1763   90.5686   14.5006 C.ar    1  UNL1        0.1398
     17 F          64.1761   90.0358   15.9027 F       1  UNL1       -0.2042
     18 C          63.1509   90.0897   13.5161 C.ar    1  UNL1        0.0250
     19 C          63.1511   90.6226   12.1139 C.ar    1  UNL1       -0.0244
     20 C          60.6940   86.7240    9.7132 C.3     1  UNL1        0.0811
     21 C          61.5696   85.7339   10.4223 C.2     1  UNL1        0.0613
     22 C          62.5922   84.8432    9.7811 C.2     1  UNL1        0.0160
     23 C          63.2309   84.0194   10.8597 C.2     1  UNL1        0.0182
     24 C          64.3031   82.9711   10.8200 C.2     1  UNL1        0.0215
     25 C          64.7475   82.3043   12.0881 C.2     1  UNL1        0.0936
     26 N          64.1197   82.6858   13.3958 N.2     1  UNL1       -0.2624
     27 C          63.0475   83.7341   13.4356 C.3     1  UNL1        0.1708
     28 C          62.6031   84.4008   12.1676 C.2     1  UNL1        0.0832
     29 N          61.5763   85.4605   11.8972 N.2     1  UNL1       -0.2519
@<TRIPOS>BOND
     1    12    13    1
     2    13    14   ar
     3    14    15   ar
     4    15    16   ar
     5    16    17    1
     6    16    18   ar
     7    18    19   ar
     8    19     9    1
     9     9    10    1
    10     9    11    1
    11     9     8    1
    12     8     1    1
    13     1     2    1
    14     1    20    1
    15    20    21    1
    16    21    22    2
    17    22    23    1
    18    23    24    2
    19    24    25    1
    20    25    26    2
    21    26    27    1
    22    27    28    1
    23    28    29    2
    24     1     4    1
    25     4     5    1
    26     4     6    1
    27     4     7    1
    28    19    13   ar
    29    29    21    1
    30    28    23    1
    31     2     3    1
@<TRIPOS>MOLECULE
*****
 29 31 0 0 0
SMALL
GASTEIGER

@<TRIPOS>ATOM
      1 C          61.5313   87.2041    9.7224 C.3     1  UNL1        0.1812
      2 O          62.8825   87.4377   10.3306 O.3     1  UNL1       -0.3784
      3 H          63.3284   86.5867   10.4643 H       1  UNL1        0.2106
      4 C          60.1802   86.9704    9.1143 C.3     1  UNL1        0.4197
      5 F          58.8290   86.7368    8.5062 F       1  UNL1       -0.1676
      6 F          60.8027   86.0943    8.0678 F       1  UNL1       -0.1676
      7 F          59.5578   87.8465   10.1607 F       1  UNL1       -0.1676
      8 C          61.7850   85.7256    9.7267 C.3     1  UNL1        0.0398
      9 C          62.4427   85.0810   10.9107 C.3     1  UNL1        0.0212
     10 C          61.4586   85.7517   11.8226 C.3     1  UNL1        0.0044
     11 C          63.4269   84.4103    9.9988 C.3     1  UNL1        0.0044
     12 C          62.6659   82.0930   11.0602 C.3     1  UNL1        0.0307
     13 C          63.2121   82.9424   12.1695 C.ar    1  UNL1       -0.0257
     14 C          63.8698   82.2977   13.3535 C.ar    1  UNL1       -0.0023
     15 C          64.4159   83.1470   14.4627 C.ar    1  UNL1        0.0293
     16 C          64.3043   84.6411   14.3879 C.ar    1  UNL1        0.1398
     17 F          64.8505   85.4904   15.4972 F       1  UNL1       -0.2042
     18 C          63.6466   85.2857   13.2040 C.ar    1  UNL1        0.0250
     19 C          63.1005   84.4363   12.0947 C.ar    1  UNL1       -0.0244
     20 C          61.2776   88.6824    9.7181 C.3     1  UNL1        0.0811
     21 C          62.2378   89.6101   10.4018 C.2     1  UNL1        0.0613
     22 C          62.5689   89.6147   11.8649 C.2     1  UNL1        0.0160
     23 C          63.5712   90.7035   12.1099 C.2     1  UNL1        0.0182
     24 C          64.2585   91.1728   13.3578 C.2     1  UNL1        0.0215
     25 C          65.2342   92.3104   13.2941 C.2     1  UNL1        0.0936
     26 N          65.5225   92.9786   11.9826 N.2     1  UNL1       -0.2624
     27 C          64.8352   92.5094   10.7346 C.3     1  UNL1        0.1708
     28 C          63.8595   91.3719   10.7983 C.2     1  UNL1        0.0832
     29 N          63.0354   90.6960    9.7426 N.2     1  UNL1       -0.2519
@<TRIPOS>BOND
     1    12    13    1
     2    13    14   ar
     3    14    15   ar
     4    15    16   ar
     5    16    17    1
     6    16    18   ar
     7    18    19   ar
     8    19     9    1
     9     9    10    1
    10     9    11    1
    11     9     8    1
    12     8     1    1
    13     1     2    1
    14     1    20    1
    15    20    21    1
    16    21    22    2
    17    22    23    1
    18    23    24    2
    19    24    25    1
    20    25    26    2
    21    26    27    1
    22    27    28    1
    23    28    29    2
    24     1     4    1
    25     4     5    1
    26     4     6    1
    27     4     7    1
    28    19    13   ar
    29    29    21    1
    30    28    23    1
    31     2     3    1
@<TRIPOS>MOLECULE
*****
 29 31 0 0 0
SMALL
GASTEIGER

@<TRIPOS>ATOM
      1 C          63.5026   90.7568   12.3033 C.3     1  UNL1        0.1812
      2 O          63.3856   91.6219   11.0835 O.3     1  UNL1       -0.3784
      3 H          62.4677   91.6159   10.7698 H       1  UNL1        0.2106
      4 C          63.6196   89.8918   13.5231 C.3     1  UNL1        0.4197
      5 F          63.7367   89.0266   14.7429 F       1  UNL1       -0.1676
      6 F          63.2375   91.0574   14.3865 F       1  UNL1       -0.1676
      7 F          64.0017   88.7262   12.6598 F       1  UNL1       -0.1676
      8 C          62.0385   90.4411   12.2199 C.3     1  UNL1        0.0398
      9 C          61.5253   89.5451   11.1320 C.3     1  UNL1        0.0212
     10 C          60.2766   89.2972   11.9252 C.3     1  UNL1        0.0044
     11 C          62.7740   89.7930   10.3387 C.3     1  UNL1        0.0044
     12 C          62.1179   86.6051   11.2057 C.3     1  UNL1        0.0307
     13 C          61.3084   87.1791   10.0808 C.ar    1  UNL1       -0.0257
     14 C          60.7952   86.2830    8.9928 C.ar    1  UNL1       -0.0023
     15 C          59.9856   86.8570    7.8680 C.ar    1  UNL1        0.0293
     16 C          59.6893   88.3270    7.8311 C.ar    1  UNL1        0.1398
     17 F          58.8798   88.9009    6.7063 F       1  UNL1       -0.2042
     18 C          60.2025   89.2230    8.9191 C.ar    1  UNL1        0.0250
     19 C          61.0121   88.6490   10.0440 C.ar    1  UNL1       -0.0244
     20 C          64.9666   91.0725   12.3867 C.3     1  UNL1        0.0811
     21 C          65.5069   92.3051   11.7244 C.2     1  UNL1        0.0613
     22 C          66.2313   92.3553   10.4118 C.2     1  UNL1        0.0160
     23 C          66.5898   93.7852   10.1346 C.2     1  UNL1        0.0182
     24 C          67.3091   94.4359    8.9904 C.2     1  UNL1        0.0215
     25 C          67.5257   95.9202    8.9874 C.2     1  UNL1        0.0936
     26 N          67.0230   96.7537   10.1286 N.2     1  UNL1       -0.2624
     27 C          66.3037   96.1031   11.2728 C.3     1  UNL1        0.1708
     28 C          66.0871   94.6188   11.2758 C.2     1  UNL1        0.0832
     29 N          65.4178   93.7040   12.2584 N.2     1  UNL1       -0.2519
@<TRIPOS>BOND
     1    12    13    1
     2    13    14   ar
     3    14    15   ar
     4    15    16   ar
     5    16    17    1
     6    16    18   ar
     7    18    19   ar
     8    19     9    1
     9     9    10    1
    10     9    11    1
    11     9     8    1
    12     8     1    1
    13     1     2    1
    14     1    20    1
    15    20    21    1
    16    21    22    2
    17    22    23    1
    18    23    24    2
    19    24    25    1
    20    25    26    2
    21    26    27    1
    22    27    28    1
    23    28    29    2
    24     1     4    1
    25     4     5    1
    26     4     6    1
    27     4     7    1
    28    19    13   ar
    29    29    21    1
    30    28    23    1
    31     2     3    1
@<TRIPOS>MOLECULE
*****
 29 31 0 0 0
SMALL
GASTEIGER

@<TRIPOS>ATOM
      1 C          63.1668   87.9150   12.7721 C.3     1  UNL1        0.1812
      2 O          62.3621   86.8191   12.1386 O.3     1  UNL1       -0.3784
      3 H          61.7505   87.2007   11.4896 H       1  UNL1        0.2106
      4 C          63.9714   89.0110   13.4055 C.3     1  UNL1        0.4197
      5 F          64.7762   90.1070   14.0390 F       1  UNL1       -0.1676
      6 F          64.6618   88.0019   14.2746 F       1  UNL1       -0.1676
      7 F          63.2812   90.0201   12.5365 F       1  UNL1       -0.1676
      8 C          62.4481   88.9285   11.9315 C.3     1  UNL1        0.0398
      9 C          61.6607   88.4868   10.7337 C.3     1  UNL1        0.0212
     10 C          60.4019   88.5204   11.5488 C.3     1  UNL1        0.0044
     11 C          62.9194   88.4532    9.9186 C.3     1  UNL1        0.0044
     12 C          61.4660   85.5702   10.0589 C.3     1  UNL1        0.0307
     13 C          60.7759   86.5868    9.1985 C.ar    1  UNL1       -0.0257
     14 C          59.9884   86.1451    8.0006 C.ar    1  UNL1       -0.0023
     15 C          59.2983   87.1616    7.1402 C.ar    1  UNL1        0.0293
     16 C          59.3956   88.6200    7.4776 C.ar    1  UNL1        0.1398
     17 F          58.7055   89.6365    6.6172 F       1  UNL1       -0.2042
     18 C          60.1831   89.0617    8.6755 C.ar    1  UNL1        0.0250
     19 C          60.8732   88.0451    9.5359 C.ar    1  UNL1       -0.0244
     20 C          63.8854   86.9016   13.6126 C.3     1  UNL1        0.0811
     21 C          63.5210   85.4500   13.5123 C.2     1  UNL1        0.0613
     22 C          64.0452   84.4774   12.4976 C.2     1  UNL1        0.0160
     23 C          63.4167   83.1424   12.7672 C.2     1  UNL1        0.0182
     24 C          63.5574   81.8116   12.0897 C.2     1  UNL1        0.0215
     25 C          62.7855   80.6281   12.5934 C.2     1  UNL1        0.0936
     26 N          61.8728   80.7756   13.7746 N.2     1  UNL1       -0.2624
     27 C          61.7320   82.1064   14.4521 C.3     1  UNL1        0.1708
     28 C          62.5039   83.2898   13.9484 C.2     1  UNL1        0.0832
     29 N          62.5684   84.7160   14.4089 N.2     1  UNL1       -0.2519
@<TRIPOS>BOND
     1    12    13    1
     2    13    14   ar
     3    14    15   ar
     4    15    16   ar
     5    16    17    1
     6    16    18   ar
     7    18    19   ar
     8    19     9    1
     9     9    10    1
    10     9    11    1
    11     9     8    1
    12     8     1    1
    13     1     2    1
    14     1    20    1
    15    20    21    1
    16    21    22    2
    17    22    23    1
    18    23    24    2
    19    24    25    1
    20    25    26    2
    21    26    27    1
    22    27    28    1
    23    28    29    2
    24     1     4    1
    25     4     5    1
    26     4     6    1
    27     4     7    1
    28    19    13   ar
    29    29    21    1
    30    28    23    1
    31     2     3    1
