@<TRIPOS>MOLECULE
*****
 30 32 0 0 0
SMALL
GASTEIGER

@<TRIPOS>ATOM
      1 C          64.2693   89.5964   14.3877 C.3     1  UNL1        0.0373
      2 C          64.6285   90.2334   15.6972 C.3     1  UNL1        0.0075
      3 C          65.2032   91.6187   15.7247 C.3     1  UNL1        0.0219
      4 C          65.4186   92.3669   14.4426 C.3     1  UNL1        0.0950
      5 N          65.0593   91.7299   13.1330 N.am    1  UNL1       -0.2637
      6 C          65.2747   92.4781   11.8509 C.2     1  UNL1        0.3077
      7 O          64.9154   91.8409   10.5413 O.2     1  UNL1       -0.2522
      8 N          65.8493   93.8634   11.8784 N.am    1  UNL1       -0.2681
      9 C          64.4846   90.3446   13.1055 C.3     1  UNL1        0.0989
     10 H          66.0852   94.2815   12.7379 H       1  UNL1        0.1564
     11 C          66.0647   94.6115   10.5963 C.ar    1  UNL1        0.0516
     12 C          67.0226   94.0816    9.5706 C.ar    1  UNL1        0.0156
     13 C          67.2380   94.8297    8.2885 C.ar    1  UNL1        0.0127
     14 C          66.4955   96.1076    8.0319 C.ar    1  UNL1        0.0578
     15 CL         66.7110   96.8557    6.7497 Cl      1  UNL1       -0.0822
     16 C          65.5377   96.6374    9.0575 C.ar    1  UNL1        0.0127
     17 C          65.3223   95.8893   10.3397 C.ar    1  UNL1        0.0156
     18 C          63.8824   88.4939   15.3284 C.ar    1  UNL1       -0.0212
     19 C          64.2446   87.0738   15.0090 C.ar    1  UNL1       -0.0042
     20 C          63.8577   85.9714   15.9498 C.ar    1  UNL1       -0.0003
     21 C          63.1087   86.2891   17.2099 C.ar    1  UNL1       -0.0000
     22 C          62.7466   87.7092   17.5294 C.ar    1  UNL1       -0.0003
     23 C          63.1334   88.8116   16.5886 C.ar    1  UNL1       -0.0042
     24 C          63.7756   88.5764   13.4048 C.3     1  UNL1        0.0057
     25 C          62.9783   89.0101   12.2106 C.3     1  UNL1        0.0008
     26 C          62.3769   87.9833   11.2972 C.3     1  UNL1        0.0059
     27 C          61.0661   88.2568   10.6212 C.3     1  UNL1        0.0417
     28 O          59.4854   89.0740   12.5143 O.co2   1  UNL1       -0.5492
     29 C          60.1356   89.2921   11.1803 C.2     1  UNL1        0.0503
     30 O          59.8554   90.5454   10.4053 O.co2   1  UNL1       -0.5492
@<TRIPOS>UNITY_ATOM_ATTR
28 1
charge -1
@<TRIPOS>BOND
     1    28    29   ar
     2    29    30   ar
     3    29    27    1
     4    27    26    1
     5    26    25    1
     6    25    24    1
     7    24     1    1
     8     1    18    1
     9    18    19   ar
    10    19    20   ar
    11    20    21   ar
    12    21    22   ar
    13    22    23   ar
    14     1     2    1
    15     2     3    1
    16     3     4    1
    17     4     5    1
    18     5     6   am
    19     6     7    2
    20     6     8   am
    21     8    11    1
    22    11    12   ar
    23    12    13   ar
    24    13    14   ar
    25    14    15    1
    26    14    16   ar
    27    16    17   ar
    28     5     9    1
    29     9     1    1
    30    23    18   ar
    31    17    11   ar
    32     8    10    1
@<TRIPOS>MOLECULE
*****
 30 32 0 0 0
SMALL
GASTEIGER

@<TRIPOS>ATOM
      1 C          65.8330   91.7223   13.7972 C.3     1  UNL1        0.0373
      2 C          65.3737   91.4026   15.1889 C.3     1  UNL1        0.0075
      3 C          64.1455   90.5678   15.4001 C.3     1  UNL1        0.0219
      4 C          63.3767   90.0527   14.2196 C.3     1  UNL1        0.0950
      5 N          63.8360   90.3723   12.8280 N.am    1  UNL1       -0.2637
      6 C          63.0671   89.8572   11.6475 C.2     1  UNL1        0.3077
      7 O          63.5265   90.1769   10.2558 O.2     1  UNL1       -0.2522
      8 N          61.8389   89.0223   11.8588 N.am    1  UNL1       -0.2681
      9 C          65.0641   91.2071   12.6167 C.3     1  UNL1        0.0989
     10 H          61.5374   88.8125   12.7722 H       1  UNL1        0.1564
     11 C          61.0701   88.5073   10.6783 C.ar    1  UNL1        0.0516
     12 C          60.9384   87.0296   10.4559 C.ar    1  UNL1        0.0156
     13 C          60.1696   86.5145    9.2755 C.ar    1  UNL1        0.0127
     14 C          59.5325   87.4768    8.3173 C.ar    1  UNL1        0.0578
     15 CL         58.7637   86.9616    7.1368 Cl      1  UNL1       -0.0822
     16 C          59.6643   88.9544    8.5397 C.ar    1  UNL1        0.0127
     17 C          60.4331   89.4696    9.7202 C.ar    1  UNL1        0.0156
     18 C          66.8888   92.4344   14.5899 C.ar    1  UNL1       -0.0212
     19 C          67.8267   91.6532   15.4617 C.ar    1  UNL1       -0.0042
     20 C          68.8824   92.3653   16.2544 C.ar    1  UNL1       -0.0003
     21 C          69.0002   93.8585   16.1753 C.ar    1  UNL1       -0.0000
     22 C          68.0623   94.6397   15.3035 C.ar    1  UNL1       -0.0003
     23 C          67.0066   93.9276   14.5108 C.ar    1  UNL1       -0.0042
     24 C          66.6590   92.2893   12.6808 C.3     1  UNL1        0.0057
     25 C          66.0067   92.6749   11.3863 C.3     1  UNL1        0.0008
     26 C          65.7716   94.1215   11.0667 C.3     1  UNL1        0.0059
     27 C          66.8838   94.9554   10.5031 C.3     1  UNL1        0.0417
     28 O          67.3998   94.6726    7.9725 O.co2   1  UNL1       -0.5492
     29 C          67.7497   94.4086    9.4070 C.2     1  UNL1        0.0503
     30 O          68.9655   93.5979    9.7455 O.co2   1  UNL1       -0.5492
@<TRIPOS>UNITY_ATOM_ATTR
28 1
charge -1
@<TRIPOS>BOND
     1    28    29   ar
     2    29    30   ar
     3    29    27    1
     4    27    26    1
     5    26    25    1
     6    25    24    1
     7    24     1    1
     8     1    18    1
     9    18    19   ar
    10    19    20   ar
    11    20    21   ar
    12    21    22   ar
    13    22    23   ar
    14     1     2    1
    15     2     3    1
    16     3     4    1
    17     4     5    1
    18     5     6   am
    19     6     7    2
    20     6     8   am
    21     8    11    1
    22    11    12   ar
    23    12    13   ar
    24    13    14   ar
    25    14    15    1
    26    14    16   ar
    27    16    17   ar
    28     5     9    1
    29     9     1    1
    30    23    18   ar
    31    17    11   ar
    32     8    10    1
@<TRIPOS>MOLECULE
*****
 30 32 0 0 0
SMALL
GASTEIGER

@<TRIPOS>ATOM
      1 C          65.6873   93.1382   11.7201 C.3     1  UNL1        0.0373
      2 C          66.4534   93.9218   12.7443 C.3     1  UNL1        0.0075
      3 C          66.5948   93.3935   14.1410 C.3     1  UNL1        0.0219
      4 C          65.9702   92.0816   14.5136 C.3     1  UNL1        0.0950
      5 N          65.2041   91.2980   13.4894 N.am    1  UNL1       -0.2637
      6 C          64.5794   89.9861   13.8619 C.2     1  UNL1        0.3077
      7 O          63.8133   89.2026   12.8376 O.2     1  UNL1       -0.2522
      8 N          64.7209   89.4578   15.2586 N.am    1  UNL1       -0.2681
      9 C          65.0626   91.8263   12.0926 C.3     1  UNL1        0.0989
     10 H          65.2237   89.9721   15.9309 H       1  UNL1        0.1564
     11 C          64.0962   88.1459   15.6310 C.ar    1  UNL1        0.0516
     12 C          63.1340   88.0727   16.7795 C.ar    1  UNL1        0.0156
     13 C          62.5093   86.7609   17.1520 C.ar    1  UNL1        0.0127
     14 C          62.8467   85.5223   16.3760 C.ar    1  UNL1        0.0578
     15 CL         62.2220   84.2104   16.7485 Cl      1  UNL1       -0.0822
     16 C          63.8089   85.5955   15.2276 C.ar    1  UNL1        0.0127
     17 C          64.4336   86.9074   14.8551 C.ar    1  UNL1        0.0156
     18 C          66.0951   94.3206   10.8919 C.ar    1  UNL1       -0.0212
     19 C          67.0848   94.1504    9.7778 C.ar    1  UNL1       -0.0042
     20 C          67.4925   95.3327    8.9497 C.ar    1  UNL1       -0.0003
     21 C          66.9105   96.6853    9.2358 C.ar    1  UNL1       -0.0000
     22 C          65.9208   96.8555   10.3500 C.ar    1  UNL1       -0.0003
     23 C          65.5131   95.6731   11.1780 C.ar    1  UNL1       -0.0042
     24 C          65.0628   92.7652   10.4082 C.3     1  UNL1        0.0057
     25 C          64.3541   91.4514   10.2616 C.3     1  UNL1        0.0008
     26 C          62.8555   91.4092   10.2105 C.3     1  UNL1        0.0059
     27 C          62.1480   90.0993   10.0268 C.3     1  UNL1        0.0417
     28 O          59.7265   90.7428   10.7142 O.co2   1  UNL1       -0.5492
     29 C          60.8965   89.8080   10.8007 C.2     1  UNL1        0.0503
     30 O          60.8149   88.5820   11.6610 O.co2   1  UNL1       -0.5492
@<TRIPOS>UNITY_ATOM_ATTR
28 1
charge -1
@<TRIPOS>BOND
     1    28    29   ar
     2    29    30   ar
     3    29    27    1
     4    27    26    1
     5    26    25    1
     6    25    24    1
     7    24     1    1
     8     1    18    1
     9    18    19   ar
    10    19    20   ar
    11    20    21   ar
    12    21    22   ar
    13    22    23   ar
    14     1     2    1
    15     2     3    1
    16     3     4    1
    17     4     5    1
    18     5     6   am
    19     6     7    2
    20     6     8   am
    21     8    11    1
    22    11    12   ar
    23    12    13   ar
    24    13    14   ar
    25    14    15    1
    26    14    16   ar
    27    16    17   ar
    28     5     9    1
    29     9     1    1
    30    23    18   ar
    31    17    11   ar
    32     8    10    1
@<TRIPOS>MOLECULE
*****
 30 32 0 0 0
SMALL
GASTEIGER

@<TRIPOS>ATOM
      1 C          63.0615   84.4877   13.4770 C.3     1  UNL1        0.0373
      2 C          63.3381   84.0728   14.8917 C.3     1  UNL1        0.0075
      3 C          63.9253   85.0560   15.8604 C.3     1  UNL1        0.0219
      4 C          64.2358   86.4541   15.4145 C.3     1  UNL1        0.0950
      5 N          63.9592   86.8690   13.9999 N.am    1  UNL1       -0.2637
      6 C          64.2697   88.2672   13.5539 C.2     1  UNL1        0.3077
      7 O          63.9931   88.6820   12.1392 O.2     1  UNL1       -0.2522
      8 N          64.8568   89.2504   14.5227 N.am    1  UNL1       -0.2681
      9 C          63.3721   85.8858   13.0311 C.3     1  UNL1        0.0989
     10 H          65.0384   88.9781   15.4512 H       1  UNL1        0.1564
     11 C          65.1673   90.6485   14.0767 C.ar    1  UNL1        0.0516
     12 C          65.9747   91.5549   14.9580 C.ar    1  UNL1        0.0156
     13 C          66.2852   92.9529   14.5121 C.ar    1  UNL1        0.0127
     14 C          65.7884   93.4447   13.1849 C.ar    1  UNL1        0.0578
     15 CL         66.0989   94.8428   12.7390 Cl      1  UNL1       -0.0822
     16 C          64.9810   92.5383   12.3037 C.ar    1  UNL1        0.0127
     17 C          64.6705   91.1402   12.7496 C.ar    1  UNL1        0.0156
     18 C          62.5992   83.0616   13.4254 C.ar    1  UNL1       -0.0212
     19 C          63.1135   82.1447   12.3555 C.ar    1  UNL1       -0.0042
     20 C          62.6511   80.7187   12.3039 C.ar    1  UNL1       -0.0003
     21 C          61.6744   80.2096   13.3221 C.ar    1  UNL1       -0.0000
     22 C          61.1601   81.1265   14.3920 C.ar    1  UNL1       -0.0003
     23 C          61.6224   82.5525   14.4436 C.ar    1  UNL1       -0.0042
     24 C          62.6243   84.4073   12.0443 C.3     1  UNL1        0.0057
     25 C          61.9717   85.5898   11.3919 C.3     1  UNL1        0.0008
     26 C          61.7170   85.5850    9.9137 C.3     1  UNL1        0.0059
     27 C          60.8649   86.6538    9.2960 C.3     1  UNL1        0.0417
     28 O          58.5314   86.8849    8.1773 O.co2   1  UNL1       -0.5492
     29 C          59.9163   86.3088    8.1864 C.2     1  UNL1        0.0503
     30 O          60.3527   85.3878    7.0859 O.co2   1  UNL1       -0.5492
@<TRIPOS>UNITY_ATOM_ATTR
28 1
charge -1
@<TRIPOS>BOND
     1    28    29   ar
     2    29    30   ar
     3    29    27    1
     4    27    26    1
     5    26    25    1
     6    25    24    1
     7    24     1    1
     8     1    18    1
     9    18    19   ar
    10    19    20   ar
    11    20    21   ar
    12    21    22   ar
    13    22    23   ar
    14     1     2    1
    15     2     3    1
    16     3     4    1
    17     4     5    1
    18     5     6   am
    19     6     7    2
    20     6     8   am
    21     8    11    1
    22    11    12   ar
    23    12    13   ar
    24    13    14   ar
    25    14    15    1
    26    14    16   ar
    27    16    17   ar
    28     5     9    1
    29     9     1    1
    30    23    18   ar
    31    17    11   ar
    32     8    10    1
@<TRIPOS>MOLECULE
*****
 30 32 0 0 0
SMALL
GASTEIGER

@<TRIPOS>ATOM
      1 C          63.9805   88.1321   14.6855 C.3     1  UNL1        0.0373
      2 C          63.8356   87.8946   16.1594 C.3     1  UNL1        0.0075
      3 C          63.5609   86.5122   16.6729 C.3     1  UNL1        0.0219
      4 C          63.4311   85.3674   15.7123 C.3     1  UNL1        0.0950
      5 N          63.5760   85.6049   14.2384 N.am    1  UNL1       -0.2637
      6 C          63.4462   84.4601   13.2779 C.2     1  UNL1        0.3077
      7 O          63.5912   84.6978   11.8039 O.2     1  UNL1       -0.2522
      8 N          63.1716   83.0778   13.7913 N.am    1  UNL1       -0.2681
      9 C          63.8507   86.9873   13.7249 C.3     1  UNL1        0.0989
     10 H          63.0764   82.9218   14.7587 H       1  UNL1        0.1564
     11 C          63.0418   81.9330   12.8308 C.ar    1  UNL1        0.0516
     12 C          62.6058   80.5854   13.3246 C.ar    1  UNL1        0.0156
     13 C          62.4760   79.4406   12.3642 C.ar    1  UNL1        0.0127
     14 C          62.7822   79.6434   10.9098 C.ar    1  UNL1        0.0578
     15 CL         62.6524   78.4986    9.9492 Cl      1  UNL1       -0.0822
     16 C          63.2182   80.9910   10.4159 C.ar    1  UNL1        0.0127
     17 C          63.3480   82.1358   11.3765 C.ar    1  UNL1        0.0156
     18 C          64.1853   89.5278   15.1956 C.ar    1  UNL1       -0.0212
     19 C          65.2424   90.4011   14.5874 C.ar    1  UNL1       -0.0042
     20 C          65.4471   91.7967   15.0976 C.ar    1  UNL1       -0.0003
     21 C          64.5948   92.3190   16.2159 C.ar    1  UNL1       -0.0000
     22 C          63.5378   91.4458   16.8241 C.ar    1  UNL1       -0.0003
     23 C          63.3330   90.0502   16.3140 C.ar    1  UNL1       -0.0042
     24 C          64.1965   88.8544   13.3887 C.3     1  UNL1        0.0057
     25 C          63.1407   88.8162   12.3240 C.3     1  UNL1        0.0008
     26 C          62.4781   90.0862   11.8788 C.3     1  UNL1        0.0059
     27 C          61.2731   90.0308   10.9873 C.3     1  UNL1        0.0417
     28 O          58.9788   91.1361   11.5015 O.co2   1  UNL1       -0.5492
     29 C          59.8999   89.9553   11.5862 C.2     1  UNL1        0.0503
     30 O          59.4479   88.6990   12.2698 O.co2   1  UNL1       -0.5492
@<TRIPOS>UNITY_ATOM_ATTR
28 1
charge -1
@<TRIPOS>BOND
     1    28    29   ar
     2    29    30   ar
     3    29    27    1
     4    27    26    1
     5    26    25    1
     6    25    24    1
     7    24     1    1
     8     1    18    1
     9    18    19   ar
    10    19    20   ar
    11    20    21   ar
    12    21    22   ar
    13    22    23   ar
    14     1     2    1
    15     2     3    1
    16     3     4    1
    17     4     5    1
    18     5     6   am
    19     6     7    2
    20     6     8   am
    21     8    11    1
    22    11    12   ar
    23    12    13   ar
    24    13    14   ar
    25    14    15    1
    26    14    16   ar
    27    16    17   ar
    28     5     9    1
    29     9     1    1
    30    23    18   ar
    31    17    11   ar
    32     8    10    1
@<TRIPOS>MOLECULE
*****
 30 32 0 0 0
SMALL
GASTEIGER

@<TRIPOS>ATOM
      1 C          63.3551   83.4870   12.3326 C.3     1  UNL1        0.0373
      2 C          62.4741   83.7543   11.1484 C.3     1  UNL1        0.0075
      3 C          62.0900   85.1622   10.8020 C.3     1  UNL1        0.0219
      4 C          62.5870   86.3030   11.6398 C.3     1  UNL1        0.0950
      5 N          63.4679   86.0357   12.8239 N.am    1  UNL1       -0.2637
      6 C          63.9649   87.1764   13.6617 C.2     1  UNL1        0.3077
      7 O          64.8459   86.9090   14.8459 O.2     1  UNL1       -0.2522
      8 N          63.5808   88.5844   13.3153 N.am    1  UNL1       -0.2681
      9 C          63.8520   84.6277   13.1704 C.3     1  UNL1        0.0989
     10 H          63.0025   88.7598   12.5380 H       1  UNL1        0.1564
     11 C          64.0777   89.7250   14.1531 C.ar    1  UNL1        0.0516
     12 C          63.4653   89.9914   15.4963 C.ar    1  UNL1        0.0156
     13 C          63.9622   91.1320   16.3341 C.ar    1  UNL1        0.0127
     14 C          65.0715   92.0063   15.8289 C.ar    1  UNL1        0.0578
     15 CL         65.5684   93.1469   16.6668 Cl      1  UNL1       -0.0822
     16 C          65.6839   91.7399   14.4857 C.ar    1  UNL1        0.0127
     17 C          65.1869   90.5992   13.6478 C.ar    1  UNL1        0.0156
     18 C          63.1380   82.0842   11.8476 C.ar    1  UNL1       -0.0212
     19 C          63.4185   81.7336   10.4165 C.ar    1  UNL1       -0.0042
     20 C          63.2014   80.3309    9.9315 C.ar    1  UNL1       -0.0003
     21 C          62.7037   79.2788   10.8778 C.ar    1  UNL1       -0.0000
     22 C          62.4231   79.6294   12.3090 C.ar    1  UNL1       -0.0003
     23 C          62.6403   81.0321   12.7939 C.ar    1  UNL1       -0.0042
     24 C          64.1607   82.7325   13.3484 C.3     1  UNL1        0.0057
     25 C          64.2444   83.2317   14.7604 C.3     1  UNL1        0.0008
     26 C          63.0373   83.1740   15.6491 C.3     1  UNL1        0.0059
     27 C          62.0686   84.3190   15.6736 C.3     1  UNL1        0.0417
     28 O          63.6105   85.6933   17.2496 O.co2   1  UNL1       -0.5492
     29 C          62.2586   85.4413   16.6506 C.2     1  UNL1        0.0503
     30 O          61.0967   86.3114   17.0285 O.co2   1  UNL1       -0.5492
@<TRIPOS>UNITY_ATOM_ATTR
28 1
charge -1
@<TRIPOS>BOND
     1    28    29   ar
     2    29    30   ar
     3    29    27    1
     4    27    26    1
     5    26    25    1
     6    25    24    1
     7    24     1    1
     8     1    18    1
     9    18    19   ar
    10    19    20   ar
    11    20    21   ar
    12    21    22   ar
    13    22    23   ar
    14     1     2    1
    15     2     3    1
    16     3     4    1
    17     4     5    1
    18     5     6   am
    19     6     7    2
    20     6     8   am
    21     8    11    1
    22    11    12   ar
    23    12    13   ar
    24    13    14   ar
    25    14    15    1
    26    14    16   ar
    27    16    17   ar
    28     5     9    1
    29     9     1    1
    30    23    18   ar
    31    17    11   ar
    32     8    10    1
@<TRIPOS>MOLECULE
*****
 30 32 0 0 0
SMALL
GASTEIGER

@<TRIPOS>ATOM
      1 C          64.0012   88.0602   14.7664 C.3     1  UNL1        0.0373
      2 C          63.7791   87.8307   16.2319 C.3     1  UNL1        0.0075
      3 C          63.4481   86.4566   16.7342 C.3     1  UNL1        0.0219
      4 C          63.3393   85.3120   15.7709 C.3     1  UNL1        0.0950
      5 N          63.5614   85.5415   14.3053 N.am    1  UNL1       -0.2637
      6 C          63.4526   84.3968   13.3419 C.2     1  UNL1        0.3077
      7 O          63.6747   84.6264   11.8764 O.2     1  UNL1       -0.2522
      8 N          63.1217   83.0227   13.8442 N.am    1  UNL1       -0.2681
      9 C          63.8923   86.9156   13.8030 C.3     1  UNL1        0.0989
     10 H          62.9759   82.8721   14.8061 H       1  UNL1        0.1564
     11 C          63.0129   81.8782   12.8808 C.ar    1  UNL1        0.0516
     12 C          63.3414   82.0839   11.4317 C.ar    1  UNL1        0.0156
     13 C          63.2327   80.9394   10.4683 C.ar    1  UNL1        0.0127
     14 C          62.7954   79.5892   10.9539 C.ar    1  UNL1        0.0578
     15 CL         62.6866   78.4446    9.9904 Cl      1  UNL1       -0.0822
     16 C          62.4668   79.3835   12.4029 C.ar    1  UNL1        0.0127
     17 C          62.5756   80.5280   13.3664 C.ar    1  UNL1        0.0156
     18 C          64.2126   89.4525   15.2830 C.ar    1  UNL1       -0.0212
     19 C          65.3920   90.2541   14.8178 C.ar    1  UNL1       -0.0042
     20 C          65.6035   91.6463   15.3344 C.ar    1  UNL1       -0.0003
     21 C          64.6355   92.2370   16.3163 C.ar    1  UNL1       -0.0000
     22 C          63.4561   91.4354   16.7815 C.ar    1  UNL1       -0.0003
     23 C          63.2446   90.0432   16.2649 C.ar    1  UNL1       -0.0042
     24 C          64.2967   88.7733   13.4802 C.3     1  UNL1        0.0057
     25 C          63.1845   89.0876   12.5242 C.3     1  UNL1        0.0008
     26 C          63.2573   90.3162   11.6666 C.3     1  UNL1        0.0059
     27 C          63.8678   91.5743   12.2091 C.3     1  UNL1        0.0417
     28 O          66.3511   92.3353   12.1441 O.co2   1  UNL1       -0.5492
     29 C          65.0079   92.2273   11.4853 C.2     1  UNL1        0.0503
     30 O          64.8047   92.7722   10.1026 O.co2   1  UNL1       -0.5492
@<TRIPOS>UNITY_ATOM_ATTR
28 1
charge -1
@<TRIPOS>BOND
     1    28    29   ar
     2    29    30   ar
     3    29    27    1
     4    27    26    1
     5    26    25    1
     6    25    24    1
     7    24     1    1
     8     1    18    1
     9    18    19   ar
    10    19    20   ar
    11    20    21   ar
    12    21    22   ar
    13    22    23   ar
    14     1     2    1
    15     2     3    1
    16     3     4    1
    17     4     5    1
    18     5     6   am
    19     6     7    2
    20     6     8   am
    21     8    11    1
    22    11    12   ar
    23    12    13   ar
    24    13    14   ar
    25    14    15    1
    26    14    16   ar
    27    16    17   ar
    28     5     9    1
    29     9     1    1
    30    23    18   ar
    31    17    11   ar
    32     8    10    1
@<TRIPOS>MOLECULE
*****
 30 32 0 0 0
SMALL
GASTEIGER

@<TRIPOS>ATOM
      1 C          61.9064   88.6192   10.2820 C.3     1  UNL1        0.0373
      2 C          61.6240   89.6884    9.2686 C.3     1  UNL1        0.0075
      3 C          62.3086   91.0191    9.3716 C.3     1  UNL1        0.0219
      4 C          63.2757   91.2805   10.4881 C.3     1  UNL1        0.0950
      5 N          63.5581   90.2113   11.5015 N.am    1  UNL1       -0.2637
      6 C          64.5251   90.4727   12.6180 C.2     1  UNL1        0.3077
      7 O          64.8075   89.4034   13.6314 O.2     1  UNL1       -0.2522
      8 N          65.2098   91.8033   12.7210 N.am    1  UNL1       -0.2681
      9 C          62.8734   88.8806   11.3985 C.3     1  UNL1        0.0989
     10 H          65.0244   92.5051   12.0559 H       1  UNL1        0.1564
     11 C          66.1768   92.0647   13.8375 C.ar    1  UNL1        0.0516
     12 C          65.6672   92.3987   15.2083 C.ar    1  UNL1        0.0156
     13 C          66.6341   92.6600   16.3247 C.ar    1  UNL1        0.0127
     14 C          68.1107   92.5874   16.0706 C.ar    1  UNL1        0.0578
     15 CL         69.0777   92.8487   17.1872 Cl      1  UNL1       -0.0822
     16 C          68.6203   92.2533   14.7000 C.ar    1  UNL1        0.0127
     17 C          67.6533   91.9920   13.5834 C.ar    1  UNL1        0.0156
     18 C          60.9182   87.8996    9.4126 C.ar    1  UNL1       -0.0212
     19 C          59.6041   88.5421    9.0804 C.ar    1  UNL1       -0.0042
     20 C          58.6160   87.8225    8.2111 C.ar    1  UNL1       -0.0003
     21 C          58.9419   86.4605    7.6739 C.ar    1  UNL1       -0.0000
     22 C          60.2560   85.8180    8.0061 C.ar    1  UNL1       -0.0003
     23 C          61.2441   86.5376    8.8755 C.ar    1  UNL1       -0.0042
     24 C          61.8456   87.3001   10.9935 C.3     1  UNL1        0.0057
     25 C          62.9033   86.9378   11.9934 C.3     1  UNL1        0.0008
     26 C          63.0622   85.5128   12.4342 C.3     1  UNL1        0.0059
     27 C          63.0178   84.4057   11.4231 C.3     1  UNL1        0.0417
     28 O          64.1972   82.5774   12.8431 O.co2   1  UNL1       -0.5492
     29 C          63.9788   83.2584   11.5246 C.2     1  UNL1        0.0503
     30 O          64.7215   82.7922   10.3076 O.co2   1  UNL1       -0.5492
@<TRIPOS>UNITY_ATOM_ATTR
28 1
charge -1
@<TRIPOS>BOND
     1    28    29   ar
     2    29    30   ar
     3    29    27    1
     4    27    26    1
     5    26    25    1
     6    25    24    1
     7    24     1    1
     8     1    18    1
     9    18    19   ar
    10    19    20   ar
    11    20    21   ar
    12    21    22   ar
    13    22    23   ar
    14     1     2    1
    15     2     3    1
    16     3     4    1
    17     4     5    1
    18     5     6   am
    19     6     7    2
    20     6     8   am
    21     8    11    1
    22    11    12   ar
    23    12    13   ar
    24    13    14   ar
    25    14    15    1
    26    14    16   ar
    27    16    17   ar
    28     5     9    1
    29     9     1    1
    30    23    18   ar
    31    17    11   ar
    32     8    10    1
@<TRIPOS>MOLECULE
*****
 30 32 0 0 0
SMALL
GASTEIGER

@<TRIPOS>ATOM
      1 C          61.9053   88.6216   10.3340 C.3     1  UNL1        0.0373
      2 C          61.6389   89.6831    9.3083 C.3     1  UNL1        0.0075
      3 C          62.3411   91.0055    9.3977 C.3     1  UNL1        0.0219
      4 C          63.3098   91.2664   10.5129 C.3     1  UNL1        0.0950
      5 N          63.5762   90.2049   11.5386 N.am    1  UNL1       -0.2637
      6 C          64.5449   90.4659   12.6538 C.2     1  UNL1        0.3077
      7 O          64.8113   89.4043   13.6795 O.2     1  UNL1       -0.2522
      8 N          65.2472   91.7883   12.7432 N.am    1  UNL1       -0.2681
      9 C          62.8740   88.8825   11.4492 C.3     1  UNL1        0.0989
     10 H          65.0723   92.4850   12.0700 H       1  UNL1        0.1564
     11 C          66.2158   92.0491   13.8584 C.ar    1  UNL1        0.0516
     12 C          67.6920   91.9787   13.6013 C.ar    1  UNL1        0.0156
     13 C          68.6607   92.2395   14.7164 C.ar    1  UNL1        0.0127
     14 C          68.1533   92.5708   16.0886 C.ar    1  UNL1        0.0578
     15 CL         69.1220   92.8316   17.2038 Cl      1  UNL1       -0.0822
     16 C          66.6772   92.6412   16.3457 C.ar    1  UNL1        0.0127
     17 C          65.7084   92.3804   15.2305 C.ar    1  UNL1        0.0156
     18 C          60.9089   87.9056    9.4710 C.ar    1  UNL1       -0.0212
     19 C          61.2414   86.5585    8.9011 C.ar    1  UNL1       -0.0042
     20 C          60.2451   85.8426    8.0381 C.ar    1  UNL1       -0.0003
     21 C          58.9163   86.4738    7.7451 C.ar    1  UNL1       -0.0000
     22 C          58.5838   87.8209    8.3149 C.ar    1  UNL1       -0.0003
     23 C          59.5801   88.5368    9.1779 C.ar    1  UNL1       -0.0042
     24 C          61.8257   87.3114   11.0601 C.3     1  UNL1        0.0057
     25 C          62.9318   86.8982   11.9852 C.3     1  UNL1        0.0008
     26 C          62.9818   85.4958   12.5151 C.3     1  UNL1        0.0059
     27 C          63.7582   85.1925   13.7621 C.3     1  UNL1        0.0417
     28 O          61.9095   84.8275   15.5507 O.co2   1  UNL1       -0.5492
     29 C          63.1437   84.3529   14.8426 C.2     1  UNL1        0.0503
     30 O          63.7634   83.0386   15.2150 O.co2   1  UNL1       -0.5492
@<TRIPOS>UNITY_ATOM_ATTR
28 1
charge -1
@<TRIPOS>BOND
     1    28    29   ar
     2    29    30   ar
     3    29    27    1
     4    27    26    1
     5    26    25    1
     6    25    24    1
     7    24     1    1
     8     1    18    1
     9    18    19   ar
    10    19    20   ar
    11    20    21   ar
    12    21    22   ar
    13    22    23   ar
    14     1     2    1
    15     2     3    1
    16     3     4    1
    17     4     5    1
    18     5     6   am
    19     6     7    2
    20     6     8   am
    21     8    11    1
    22    11    12   ar
    23    12    13   ar
    24    13    14   ar
    25    14    15    1
    26    14    16   ar
    27    16    17   ar
    28     5     9    1
    29     9     1    1
    30    23    18   ar
    31    17    11   ar
    32     8    10    1
