@<TRIPOS>MOLECULE
*****
 27 30 0 0 0
SMALL
GASTEIGER

@<TRIPOS>ATOM
      1 C          65.0303   91.2820   13.4456 C.2     1  UNL1        0.0919
      2 C          64.8118   90.0651   14.2948 C.2     1  UNL1        0.0183
      3 C          63.9147   88.9644   13.8114 C.2     1  UNL1        0.0511
      4 C          63.2362   89.0807   12.4787 C.2     1  UNL1        0.2322
      5 N          62.3035   88.1641   11.7439 N.2     1  UNL1       -0.0308
      6 C          61.9456   88.8146   10.4405 C.2     1  UNL1        0.3752
      7 N          62.6571   90.1332   10.3698 N.2     1  UNL1       -0.0347
      8 C          63.4547   90.2976   11.6295 C.2     1  UNL1        0.2191
      9 C          64.3518   91.3983   12.1129 C.3     1  UNL1        0.1226
     10 C          61.0358   88.2462    9.3919 C.ar    1  UNL1        0.0884
     11 C          60.1610   89.1580    8.5837 C.ar    1  UNL1        0.0077
     12 C          59.2514   88.5897    7.5352 C.ar    1  UNL1        0.0003
     13 C          59.2165   87.1095    7.2949 C.ar    1  UNL1        0.0000
     14 C          60.0913   86.1977    8.1031 C.ar    1  UNL1        0.0002
     15 C          61.0010   86.7660    9.1516 C.ar    1  UNL1        0.0074
     16 C          61.8758   85.8541    9.9598 C.ar    1  UNL1        0.0002
     17 C          61.6409   85.7011   11.4334 C.ar    1  UNL1        0.0000
     18 C          62.5157   84.7892   12.2416 C.ar    1  UNL1        0.0000
     19 C          63.6254   84.0304   11.5763 C.ar    1  UNL1        0.0000
     20 C          63.8603   84.1834   10.1028 C.ar    1  UNL1        0.0000
     21 C          62.9855   85.0953    9.2945 C.ar    1  UNL1        0.0000
     22 S          65.9274   92.3827   13.9290 S.O2    1  UNL1        0.0054
     23 O          65.2421   92.3553   15.2631 O.2     1  UNL1       -0.1689
     24 O          66.6127   92.4102   12.5950 O.2     1  UNL1       -0.1689
     25 C          66.8245   93.4834   14.4125 C.3     1  UNL1        0.1556
     26 C          68.6645   92.3962   15.8897 C.3     1  UNL1        0.0019
     27 C          67.5225   93.3562   15.7340 C.3     1  UNL1        0.0257
@<TRIPOS>BOND
     1    26    27    1
     2    27    25    1
     3    25    22    1
     4    22    23    2
     5    22    24    2
     6    22     1    1
     7     1     2    2
     8     2     3    1
     9     3     4    2
    10     4     5    1
    11     5     6    2
    12     6    10    1
    13    10    11   ar
    14    11    12   ar
    15    12    13   ar
    16    13    14   ar
    17    14    15   ar
    18    15    16    1
    19    16    17   ar
    20    17    18   ar
    21    18    19   ar
    22    19    20   ar
    23    20    21   ar
    24     6     7    1
    25     7     8    2
    26     8     9    1
    27     9     1    1
    28     8     4    1
    29    15    10   ar
    30    21    16   ar
@<TRIPOS>MOLECULE
*****
 27 30 0 0 0
SMALL
GASTEIGER

@<TRIPOS>ATOM
      1 C          64.7461   90.4343   14.3484 C.2     1  UNL1        0.0919
      2 C          63.9782   90.6577   13.0794 C.2     1  UNL1        0.0183
      3 C          63.3494   89.4958   12.3689 C.2     1  UNL1        0.0511
      4 C          63.4885   88.1107   12.9274 C.2     1  UNL1        0.2322
      5 N          62.9823   86.7812   12.4518 N.2     1  UNL1       -0.0308
      6 C          63.4374   85.7361   13.4270 C.2     1  UNL1        0.3752
      7 N          64.2248   86.4198   14.5052 N.2     1  UNL1       -0.0347
      8 C          64.2564   87.8874   14.1964 C.2     1  UNL1        0.2191
      9 C          64.8851   89.0492   14.9069 C.3     1  UNL1        0.1226
     10 C          63.1547   84.2656   13.3392 C.ar    1  UNL1        0.0884
     11 C          63.3398   83.3930   14.5452 C.ar    1  UNL1        0.0077
     12 C          63.0571   81.9225   14.4575 C.ar    1  UNL1        0.0003
     13 C          62.5892   81.3246   13.1638 C.ar    1  UNL1        0.0000
     14 C          62.4041   82.1972   11.9579 C.ar    1  UNL1        0.0002
     15 C          62.6868   83.6677   12.0456 C.ar    1  UNL1        0.0074
     16 C          62.5017   84.5403   10.8396 C.ar    1  UNL1        0.0002
     17 C          61.3734   85.5276   10.7944 C.ar    1  UNL1        0.0000
     18 C          61.1882   86.4002    9.5884 C.ar    1  UNL1        0.0000
     19 C          62.1314   86.2854    8.4277 C.ar    1  UNL1        0.0000
     20 C          63.2597   85.2981    8.4730 C.ar    1  UNL1        0.0000
     21 C          63.4448   84.4255    9.6789 C.ar    1  UNL1        0.0000
     22 S          65.3748   91.5962   15.0589 S.O2    1  UNL1        0.0054
     23 O          66.6503   91.3681   14.3030 O.2     1  UNL1       -0.1689
     24 O          64.0994   91.8242   15.8147 O.2     1  UNL1       -0.1689
     25 C          66.0036   92.7580   15.7694 C.3     1  UNL1        0.1556
     26 C          68.4020   93.7548   15.8341 C.3     1  UNL1        0.0019
     27 C          67.4320   92.6777   16.2200 C.3     1  UNL1        0.0257
@<TRIPOS>BOND
     1    26    27    1
     2    27    25    1
     3    25    22    1
     4    22    23    2
     5    22    24    2
     6    22     1    1
     7     1     2    2
     8     2     3    1
     9     3     4    2
    10     4     5    1
    11     5     6    2
    12     6    10    1
    13    10    11   ar
    14    11    12   ar
    15    12    13   ar
    16    13    14   ar
    17    14    15   ar
    18    15    16    1
    19    16    17   ar
    20    17    18   ar
    21    18    19   ar
    22    19    20   ar
    23    20    21   ar
    24     6     7    1
    25     7     8    2
    26     8     9    1
    27     9     1    1
    28     8     4    1
    29    15    10   ar
    30    21    16   ar
@<TRIPOS>MOLECULE
*****
 27 30 0 0 0
SMALL
GASTEIGER

@<TRIPOS>ATOM
      1 C          64.0300   89.4629   15.5627 C.2     1  UNL1        0.0919
      2 C          63.3034   88.9613   16.7753 C.2     1  UNL1        0.0183
      3 C          62.8488   87.5333   16.8400 C.2     1  UNL1        0.0511
      4 C          63.1206   86.6070   15.6920 C.2     1  UNL1        0.2322
      5 N          62.7957   85.1592   15.4717 N.2     1  UNL1       -0.0308
      6 C          63.3215   84.7661   14.1230 C.2     1  UNL1        0.3752
      7 N          63.9713   85.9709   13.5096 N.2     1  UNL1       -0.0347
      8 C          63.8471   87.1086   14.4793 C.2     1  UNL1        0.2191
      9 C          64.3018   88.5366   14.4147 C.3     1  UNL1        0.1226
     10 C          63.2159   83.4068   13.4975 C.ar    1  UNL1        0.0884
     11 C          63.4890   82.1807   14.3173 C.ar    1  UNL1        0.0077
     12 C          63.3835   80.8214   13.6919 C.ar    1  UNL1        0.0003
     13 C          63.0048   80.6883   12.2466 C.ar    1  UNL1        0.0000
     14 C          62.7316   81.9143   11.4268 C.ar    1  UNL1        0.0002
     15 C          62.8372   83.2736   12.0522 C.ar    1  UNL1        0.0074
     16 C          62.5641   84.4997   11.2324 C.ar    1  UNL1        0.0002
     17 C          61.6812   85.5838   11.7757 C.ar    1  UNL1        0.0000
     18 C          61.4081   86.8099   10.9559 C.ar    1  UNL1        0.0000
     19 C          62.0178   86.9519    9.5928 C.ar    1  UNL1        0.0000
     20 C          62.9006   85.8677    9.0495 C.ar    1  UNL1        0.0000
     21 C          63.1738   84.6417    9.8693 C.ar    1  UNL1        0.0000
     22 S          64.4846   90.8909   15.4981 S.O2    1  UNL1        0.0054
     23 O          65.3954   90.5492   14.3563 O.2     1  UNL1       -0.1689
     24 O          63.5739   91.2325   16.6400 O.2     1  UNL1       -0.1689
     25 C          64.9393   92.3188   15.4335 C.3     1  UNL1        0.1556
     26 C          67.4037   92.7587   16.1285 C.3     1  UNL1        0.0019
     27 C          66.3567   92.6385   15.0611 C.3     1  UNL1        0.0257
@<TRIPOS>BOND
     1    26    27    1
     2    27    25    1
     3    25    22    1
     4    22    23    2
     5    22    24    2
     6    22     1    1
     7     1     2    2
     8     2     3    1
     9     3     4    2
    10     4     5    1
    11     5     6    2
    12     6    10    1
    13    10    11   ar
    14    11    12   ar
    15    12    13   ar
    16    13    14   ar
    17    14    15   ar
    18    15    16    1
    19    16    17   ar
    20    17    18   ar
    21    18    19   ar
    22    19    20   ar
    23    20    21   ar
    24     6     7    1
    25     7     8    2
    26     8     9    1
    27     9     1    1
    28     8     4    1
    29    15    10   ar
    30    21    16   ar
@<TRIPOS>MOLECULE
*****
 27 30 0 0 0
SMALL
GASTEIGER

@<TRIPOS>ATOM
      1 C          61.7352   88.6130   10.1197 C.2     1  UNL1        0.0919
      2 C          61.6798   89.9176    9.3816 C.2     1  UNL1        0.0183
      3 C          62.4374   91.1045    9.8985 C.2     1  UNL1        0.0511
      4 C          63.2504   90.9869   11.1535 C.2     1  UNL1        0.2322
      5 N          64.0957   91.9771   11.8984 N.2     1  UNL1       -0.0308
      6 C          64.6735   91.2845   13.0970 C.2     1  UNL1        0.3752
      7 N          64.1853   89.8662   13.0928 N.2     1  UNL1       -0.0347
      8 C          63.3058   89.6823   11.8917 C.2     1  UNL1        0.2191
      9 C          62.5482   88.4953   11.3748 C.3     1  UNL1        0.1226
     10 C          65.5803   91.9019   14.1201 C.ar    1  UNL1        0.0884
     11 C          65.2881   91.7317   15.5814 C.ar    1  UNL1        0.0077
     12 C          66.1948   92.3491   16.6045 C.ar    1  UNL1        0.0003
     13 C          67.3937   93.1366   16.1662 C.ar    1  UNL1        0.0000
     14 C          67.6860   93.3068   14.7048 C.ar    1  UNL1        0.0002
     15 C          66.7793   92.6895   13.6817 C.ar    1  UNL1        0.0074
     16 C          67.0715   92.8597   12.2203 C.ar    1  UNL1        0.0002
     17 C          66.4967   94.0253   11.4713 C.ar    1  UNL1        0.0000
     18 C          66.7890   94.1955   10.0100 C.ar    1  UNL1        0.0000
     19 C          67.6560   93.2001    9.2976 C.ar    1  UNL1        0.0000
     20 C          68.2307   92.0346   10.0466 C.ar    1  UNL1        0.0000
     21 C          67.9385   91.8644   11.5080 C.ar    1  UNL1        0.0000
     22 S          60.9776   87.4260    9.6029 S.O2    1  UNL1        0.0054
     23 O          60.3014   88.2995    8.5881 O.2     1  UNL1       -0.1689
     24 O          61.6538   86.5525   10.6176 O.2     1  UNL1       -0.1689
     25 C          60.2200   86.2391    9.0860 C.3     1  UNL1        0.1556
     26 C          61.4226   85.1549    7.0541 C.3     1  UNL1        0.0019
     27 C          60.2555   85.9053    7.6240 C.3     1  UNL1        0.0257
@<TRIPOS>BOND
     1    26    27    1
     2    27    25    1
     3    25    22    1
     4    22    23    2
     5    22    24    2
     6    22     1    1
     7     1     2    2
     8     2     3    1
     9     3     4    2
    10     4     5    1
    11     5     6    2
    12     6    10    1
    13    10    11   ar
    14    11    12   ar
    15    12    13   ar
    16    13    14   ar
    17    14    15   ar
    18    15    16    1
    19    16    17   ar
    20    17    18   ar
    21    18    19   ar
    22    19    20   ar
    23    20    21   ar
    24     6     7    1
    25     7     8    2
    26     8     9    1
    27     9     1    1
    28     8     4    1
    29    15    10   ar
    30    21    16   ar
@<TRIPOS>MOLECULE
*****
 27 30 0 0 0
SMALL
GASTEIGER

@<TRIPOS>ATOM
      1 C          60.8190   87.6157    9.4253 C.2     1  UNL1        0.0919
      2 C          59.7401   88.1198   10.3373 C.2     1  UNL1        0.0183
      3 C          60.0679   89.1209   11.4052 C.2     1  UNL1        0.0511
      4 C          61.4745   89.6178   11.5611 C.2     1  UNL1        0.2322
      5 N          62.0935   90.5961   12.5149 N.2     1  UNL1       -0.0308
      6 C          63.5550   90.6967   12.1924 C.2     1  UNL1        0.3752
      7 N          63.8392   89.7805   11.0393 N.2     1  UNL1       -0.0347
      8 C          62.5534   89.1137   10.6491 C.2     1  UNL1        0.2191
      9 C          62.2256   88.1126    9.5812 C.3     1  UNL1        0.1226
     10 C          64.5564   91.5616   12.8990 C.ar    1  UNL1        0.0884
     11 C          65.1338   92.7600   12.2059 C.ar    1  UNL1        0.0077
     12 C          66.1351   93.6249   12.9124 C.ar    1  UNL1        0.0003
     13 C          66.5590   93.2914   14.3121 C.ar    1  UNL1        0.0000
     14 C          65.9816   92.0930   15.0052 C.ar    1  UNL1        0.0002
     15 C          64.9802   91.2281   14.2987 C.ar    1  UNL1        0.0074
     16 C          64.4028   90.0297   14.9918 C.ar    1  UNL1        0.0002
     17 C          64.7122   88.6509   14.4887 C.ar    1  UNL1        0.0000
     18 C          64.1347   87.4525   15.1818 C.ar    1  UNL1        0.0000
     19 C          63.2479   87.6329   16.3780 C.ar    1  UNL1        0.0000
     20 C          62.9385   89.0117   16.8811 C.ar    1  UNL1        0.0000
     21 C          63.5160   90.2101   16.1880 C.ar    1  UNL1        0.0000
     22 S          60.4912   86.6146    8.3574 S.O2    1  UNL1        0.0054
     23 O          61.7775   85.8953    8.6370 O.2     1  UNL1       -0.1689
     24 O          59.2050   87.3340    8.0778 O.2     1  UNL1       -0.1689
     25 C          60.1635   85.6136    7.2895 C.3     1  UNL1        0.1556
     26 C          61.6185   84.4215    5.4973 C.3     1  UNL1        0.0019
     27 C          61.1621   84.5572    6.9198 C.3     1  UNL1        0.0257
@<TRIPOS>BOND
     1    26    27    1
     2    27    25    1
     3    25    22    1
     4    22    23    2
     5    22    24    2
     6    22     1    1
     7     1     2    2
     8     2     3    1
     9     3     4    2
    10     4     5    1
    11     5     6    2
    12     6    10    1
    13    10    11   ar
    14    11    12   ar
    15    12    13   ar
    16    13    14   ar
    17    14    15   ar
    18    15    16    1
    19    16    17   ar
    20    17    18   ar
    21    18    19   ar
    22    19    20   ar
    23    20    21   ar
    24     6     7    1
    25     7     8    2
    26     8     9    1
    27     9     1    1
    28     8     4    1
    29    15    10   ar
    30    21    16   ar
@<TRIPOS>MOLECULE
*****
 27 30 0 0 0
SMALL
GASTEIGER

@<TRIPOS>ATOM
      1 C          61.4900   89.1573   10.2965 C.2     1  UNL1        0.0919
      2 C          61.9319   87.8899   10.9662 C.2     1  UNL1        0.0183
      3 C          62.9521   87.9384   12.0647 C.2     1  UNL1        0.0511
      4 C          63.5306   89.2542   12.4935 C.2     1  UNL1        0.2322
      5 N          64.5449   89.6118   13.5390 N.2     1  UNL1       -0.0308
      6 C          64.7300   91.1001   13.5156 C.2     1  UNL1        0.3752
      7 N          63.8300   91.6625   12.4555 N.2     1  UNL1       -0.0347
      8 C          63.0887   90.5216   11.8238 C.2     1  UNL1        0.2191
      9 C          62.0684   90.4731   10.7254 C.3     1  UNL1        0.1226
     10 C          65.6531   91.8878   14.3974 C.ar    1  UNL1        0.0884
     11 C          65.4857   91.8441   15.8874 C.ar    1  UNL1        0.0077
     12 C          66.4087   92.6317   16.7693 C.ar    1  UNL1        0.0003
     13 C          67.4990   93.4631   16.1611 C.ar    1  UNL1        0.0000
     14 C          67.6664   93.5069   14.6711 C.ar    1  UNL1        0.0002
     15 C          66.7434   92.7192   13.7893 C.ar    1  UNL1        0.0074
     16 C          66.9107   92.7630   12.2993 C.ar    1  UNL1        0.0002
     17 C          67.8800   91.8373   11.6259 C.ar    1  UNL1        0.0000
     18 C          68.0473   91.8810   10.1359 C.ar    1  UNL1        0.0000
     19 C          67.2454   92.8505    9.3193 C.ar    1  UNL1        0.0000
     20 C          66.2762   93.7763    9.9927 C.ar    1  UNL1        0.0000
     21 C          66.1088   93.7325   11.4827 C.ar    1  UNL1        0.0000
     22 S          60.4697   89.1088    9.1980 S.O2    1  UNL1        0.0054
     23 O          61.0299   87.7964    8.7357 O.2     1  UNL1       -0.1689
     24 O          59.9095   90.4213    9.6604 O.2     1  UNL1       -0.1689
     25 C          59.4494   89.0604    8.0996 C.3     1  UNL1        0.1556
     26 C          58.8253   90.2823    5.8933 C.3     1  UNL1        0.0019
     27 C          59.8145   89.5115    6.7164 C.3     1  UNL1        0.0257
@<TRIPOS>BOND
     1    26    27    1
     2    27    25    1
     3    25    22    1
     4    22    23    2
     5    22    24    2
     6    22     1    1
     7     1     2    2
     8     2     3    1
     9     3     4    2
    10     4     5    1
    11     5     6    2
    12     6    10    1
    13    10    11   ar
    14    11    12   ar
    15    12    13   ar
    16    13    14   ar
    17    14    15   ar
    18    15    16    1
    19    16    17   ar
    20    17    18   ar
    21    18    19   ar
    22    19    20   ar
    23    20    21   ar
    24     6     7    1
    25     7     8    2
    26     8     9    1
    27     9     1    1
    28     8     4    1
    29    15    10   ar
    30    21    16   ar
@<TRIPOS>MOLECULE
*****
 27 30 0 0 0
SMALL
GASTEIGER

@<TRIPOS>ATOM
      1 C          62.9376   83.5254   14.6446 C.2     1  UNL1        0.0919
      2 C          62.9311   83.9684   16.0777 C.2     1  UNL1        0.0183
      3 C          63.2066   85.4024   16.4208 C.2     1  UNL1        0.0511
      4 C          63.4887   86.3935   15.3308 C.2     1  UNL1        0.2322
      5 N          63.7928   87.8619   15.3635 N.2     1  UNL1       -0.0308
      6 C          63.9874   88.3266   13.9506 C.2     1  UNL1        0.3752
      7 N          63.8035   87.1453   13.0447 N.2     1  UNL1       -0.0347
      8 C          63.4953   85.9505   13.8977 C.2     1  UNL1        0.2191
      9 C          63.2198   84.5165   13.5547 C.3     1  UNL1        0.1226
     10 C          64.3094   89.7268   13.5194 C.ar    1  UNL1        0.0884
     11 C          65.3940   90.4950   14.2147 C.ar    1  UNL1        0.0077
     12 C          65.7160   91.8951   13.7835 C.ar    1  UNL1        0.0003
     13 C          64.9533   92.5270   12.6570 C.ar    1  UNL1        0.0000
     14 C          63.8687   91.7588   11.9617 C.ar    1  UNL1        0.0002
     15 C          63.5467   90.3587   12.3929 C.ar    1  UNL1        0.0074
     16 C          62.4621   89.5905   11.6976 C.ar    1  UNL1        0.0002
     17 C          62.7706   88.8230   10.4463 C.ar    1  UNL1        0.0000
     18 C          61.6859   88.0548    9.7510 C.ar    1  UNL1        0.0000
     19 C          60.2928   88.0541   10.3070 C.ar    1  UNL1        0.0000
     20 C          59.9843   88.8216   11.5583 C.ar    1  UNL1        0.0000
     21 C          61.0690   89.5898   12.2536 C.ar    1  UNL1        0.0000
     22 S          62.6621   82.0914   14.3016 S.O2    1  UNL1        0.0054
     23 O          64.1345   81.8051   14.3160 O.2     1  UNL1       -0.1689
     24 O          61.1898   82.3778   14.2871 O.2     1  UNL1       -0.1689
     25 C          62.3866   80.6574   13.9585 C.3     1  UNL1        0.1556
     26 C          62.8274   81.1378   11.4436 C.3     1  UNL1        0.0019
     27 C          62.6263   80.1606   12.5636 C.3     1  UNL1        0.0257
@<TRIPOS>BOND
     1    26    27    1
     2    27    25    1
     3    25    22    1
     4    22    23    2
     5    22    24    2
     6    22     1    1
     7     1     2    2
     8     2     3    1
     9     3     4    2
    10     4     5    1
    11     5     6    2
    12     6    10    1
    13    10    11   ar
    14    11    12   ar
    15    12    13   ar
    16    13    14   ar
    17    14    15   ar
    18    15    16    1
    19    16    17   ar
    20    17    18   ar
    21    18    19   ar
    22    19    20   ar
    23    20    21   ar
    24     6     7    1
    25     7     8    2
    26     8     9    1
    27     9     1    1
    28     8     4    1
    29    15    10   ar
    30    21    16   ar
