@<TRIPOS>MOLECULE
*****
 36 39 0 0 0
SMALL
GASTEIGER

@<TRIPOS>ATOM
      1 N          63.2865   90.5383   12.0189 N.am    1  UNL1       -0.2438
      2 C          63.9508   90.4845   13.3627 C.3     1  UNL1        0.1009
      3 C          65.1504   91.3409   13.6411 C.3     1  UNL1        0.0661
      4 C          65.6857   92.2511   12.5759 C.3     1  UNL1        0.1587
      5 O          65.0213   92.3050   11.2320 O.3     1  UNL1       -0.4375
      6 C          63.8217   91.4486   10.9535 C.2     1  UNL1        0.4051
      7 O          63.1574   91.5025    9.6098 O.2     1  UNL1       -0.2262
      8 C          66.6525   92.5494   13.6832 C.ar    1  UNL1        0.0139
      9 C          66.8979   93.9685   14.1027 C.ar    1  UNL1        0.0014
     10 C          67.8648   94.2667   15.2101 C.ar    1  UNL1        0.0294
     11 C          68.5862   93.1458   15.8979 C.ar    1  UNL1        0.1401
     12 F          69.5531   93.4441   17.0053 F       1  UNL1       -0.2042
     13 C          68.3408   91.7267   15.4785 C.ar    1  UNL1        0.0294
     14 C          67.3740   91.4285   14.3711 C.ar    1  UNL1        0.0014
     15 C          60.7531   90.3193   11.4860 C.3     1  UNL1        0.0265
     16 C          62.0869   89.6819   11.7405 C.3     1  UNL1        0.1011
     17 C          62.2211   88.1881   11.7165 C.ar    1  UNL1       -0.0042
     18 C          61.4218   87.3788   10.7387 C.ar    1  UNL1       -0.0027
     19 C          61.5560   85.8851   10.7148 C.ar    1  UNL1       -0.0002
     20 C          62.4896   85.2006   11.6686 C.ar    1  UNL1        0.0014
     21 C          63.2889   86.0098   12.6464 C.ar    1  UNL1       -0.0002
     22 C          63.1547   87.5036   12.6704 C.ar    1  UNL1       -0.0027
     23 C          62.6238   83.7067   11.6447 C.ar    1  UNL1        0.0175
     24 C          63.2081   83.0254   10.4429 C.ar    1  UNL1        0.0064
     25 C          63.3423   81.5315   10.4189 C.ar    1  UNL1        0.0608
     26 C          62.8922   80.7191   11.5968 C.ar    1  UNL1        0.2610
     27 O          63.0264   79.2253   11.5729 O.2     1  UNL1       -0.2670
     28 N          62.3079   81.4005   12.7986 N.ar    1  UNL1       -0.2922
     29 C          61.8578   80.5881   13.9765 C.3     1  UNL1        0.1336
     30 C          62.1737   82.8943   12.8226 C.ar    1  UNL1        0.0783
     31 C          66.5567   93.2650   11.8951 C.3     1  UNL1        0.0586
     32 C          67.2933   92.8995   10.6406 C.3     1  UNL1        0.0831
     33 C          67.9560   91.7627   11.3609 C.3     1  UNL1        0.0153
     34 C          66.6307   94.0362    9.9204 C.3     1  UNL1        0.0153
     35 C          68.0299   92.5339    9.3861 C.1     1  UNL1        0.0712
     36 N          68.7667   92.1684    8.1317 N.1     1  UNL1       -0.1959
@<TRIPOS>BOND
     1    16    15    1
     2    16    17    1
     3    17    18   ar
     4    18    19   ar
     5    19    20   ar
     6    20    23    1
     7    23    24   ar
     8    24    25   ar
     9    25    26   ar
    10    26    27    2
    11    26    28   ar
    12    28    29    1
    13    28    30   ar
    14    20    21   ar
    15    21    22   ar
    16    16     1    1
    17     1     2    1
    18     2     3    1
    19     3     4    1
    20     4    31    1
    21    31    32    1
    22    32    33    1
    23    32    34    1
    24    32    35    1
    25    35    36    3
    26     4     8    1
    27     8     9   ar
    28     9    10   ar
    29    10    11   ar
    30    11    12    1
    31    11    13   ar
    32    13    14   ar
    33     4     5    1
    34     5     6    1
    35     6     7    2
    36    22    17   ar
    37     6     1   am
    38    30    23   ar
    39    14     8   ar
@<TRIPOS>MOLECULE
*****
 36 39 0 0 0
SMALL
GASTEIGER

@<TRIPOS>ATOM
      1 N          63.5623   90.5705   12.0376 N.am    1  UNL1       -0.2438
      2 C          64.2355   90.5478   13.3778 C.3     1  UNL1        0.1009
      3 C          65.4744   91.3613   13.6087 C.3     1  UNL1        0.0661
      4 C          66.0402   92.1974   12.4994 C.3     1  UNL1        0.1587
      5 O          65.3670   92.2202   11.1591 O.3     1  UNL1       -0.4375
      6 C          64.1281   91.4067   10.9282 C.2     1  UNL1        0.4051
      7 O          63.4549   91.4294    9.5879 O.2     1  UNL1       -0.2262
      8 C          67.0291   92.5018   13.5854 C.ar    1  UNL1        0.0139
      9 C          66.5772   93.1875   14.8407 C.ar    1  UNL1        0.0014
     10 C          67.5662   93.4919   15.9267 C.ar    1  UNL1        0.0294
     11 C          69.0070   93.1106   15.7573 C.ar    1  UNL1        0.1401
     12 F          69.9959   93.4150   16.8433 F       1  UNL1       -0.2042
     13 C          69.4589   92.4249   14.5021 C.ar    1  UNL1        0.0294
     14 C          68.4699   92.1205   13.4161 C.ar    1  UNL1        0.0014
     15 C          61.0063   90.4415   11.5905 C.3     1  UNL1        0.0265
     16 C          62.3234   89.7571   11.8067 C.3     1  UNL1        0.1011
     17 C          62.4016   88.2591   11.7920 C.ar    1  UNL1       -0.0042
     18 C          61.5770   87.4746   10.8150 C.ar    1  UNL1       -0.0027
     19 C          61.6552   85.9768   10.8003 C.ar    1  UNL1       -0.0002
     20 C          62.5580   85.2634   11.7626 C.ar    1  UNL1        0.0014
     21 C          63.3826   86.0479   12.7396 C.ar    1  UNL1       -0.0002
     22 C          63.3044   87.5458   12.7543 C.ar    1  UNL1       -0.0027
     23 C          62.6363   83.7655   11.7479 C.ar    1  UNL1        0.0175
     24 C          63.2569   83.0583   10.5797 C.ar    1  UNL1        0.0064
     25 C          63.3351   81.5604   10.5650 C.ar    1  UNL1        0.0608
     26 C          62.7927   80.7697   11.7185 C.ar    1  UNL1        0.2610
     27 O          62.8708   79.2718   11.7039 O.2     1  UNL1       -0.2670
     28 N          62.1720   81.4769   12.8868 N.ar    1  UNL1       -0.2922
     29 C          61.6296   80.6863   14.0403 C.3     1  UNL1        0.1336
     30 C          62.0938   82.9748   12.9014 C.ar    1  UNL1        0.0783
     31 C          66.9494   93.1393   11.7672 C.3     1  UNL1        0.0586
     32 C          66.3760   94.3081   11.0222 C.3     1  UNL1        0.0831
     33 C          66.7321   93.6532    9.7205 C.3     1  UNL1        0.0153
     34 C          66.0200   94.9631   12.3238 C.3     1  UNL1        0.0153
     35 C          65.8026   95.4769   10.2772 C.1     1  UNL1        0.0712
     36 N          65.2292   96.6457    9.5320 N.1     1  UNL1       -0.1959
@<TRIPOS>BOND
     1    16    15    1
     2    16    17    1
     3    17    18   ar
     4    18    19   ar
     5    19    20   ar
     6    20    23    1
     7    23    24   ar
     8    24    25   ar
     9    25    26   ar
    10    26    27    2
    11    26    28   ar
    12    28    29    1
    13    28    30   ar
    14    20    21   ar
    15    21    22   ar
    16    16     1    1
    17     1     2    1
    18     2     3    1
    19     3     4    1
    20     4    31    1
    21    31    32    1
    22    32    33    1
    23    32    34    1
    24    32    35    1
    25    35    36    3
    26     4     8    1
    27     8     9   ar
    28     9    10   ar
    29    10    11   ar
    30    11    12    1
    31    11    13   ar
    32    13    14   ar
    33     4     5    1
    34     5     6    1
    35     6     7    2
    36    22    17   ar
    37     6     1   am
    38    30    23   ar
    39    14     8   ar
@<TRIPOS>MOLECULE
*****
 36 39 0 0 0
SMALL
GASTEIGER

@<TRIPOS>ATOM
      1 N          63.0966   90.9808   11.3560 N.am    1  UNL1       -0.2438
      2 C          63.5679   91.6544   10.1013 C.3     1  UNL1        0.1009
      3 C          64.6589   92.6817   10.1660 C.3     1  UNL1        0.0661
      4 C          65.2786   93.0356   11.4854 C.3     1  UNL1        0.1587
      5 O          64.8073   92.3621   12.7401 O.3     1  UNL1       -0.4375
      6 C          63.7163   91.3347   12.6754 C.2     1  UNL1        0.4051
      7 O          63.2450   90.6612   13.9300 O.2     1  UNL1       -0.2262
      8 C          66.0593   93.9413   10.5796 C.ar    1  UNL1        0.0139
      9 C          67.0849   93.3672    9.6476 C.ar    1  UNL1        0.0014
     10 C          67.8656   94.2729    8.7419 C.ar    1  UNL1        0.0294
     11 C          67.6207   95.7525    8.7683 C.ar    1  UNL1        0.1401
     12 F          68.4014   96.6582    7.8625 F       1  UNL1       -0.2042
     13 C          66.5951   96.3266    9.7003 C.ar    1  UNL1        0.0294
     14 C          65.8144   95.4209   10.6060 C.ar    1  UNL1        0.0014
     15 C          60.6339   90.3444   10.8269 C.3     1  UNL1        0.0265
     16 C          62.0056   89.9535   11.2913 C.3     1  UNL1        0.1011
     17 C          62.2863   88.5352   11.6909 C.ar    1  UNL1       -0.0042
     18 C          63.3378   88.2398   12.7190 C.ar    1  UNL1       -0.0027
     19 C          63.6185   86.8215   13.1186 C.ar    1  UNL1       -0.0002
     20 C          62.8476   85.6987   12.4902 C.ar    1  UNL1        0.0014
     21 C          61.7961   85.9941   11.4621 C.ar    1  UNL1       -0.0002
     22 C          61.5154   87.4123   11.0625 C.ar    1  UNL1       -0.0027
     23 C          63.1283   84.2804   12.8899 C.ar    1  UNL1        0.0175
     24 C          63.6060   83.9729   14.2781 C.ar    1  UNL1        0.0064
     25 C          63.8868   82.5546   14.6778 C.ar    1  UNL1        0.0608
     26 C          63.6898   81.4438   13.6892 C.ar    1  UNL1        0.2610
     27 O          63.9705   80.0256   14.0888 O.2     1  UNL1       -0.2670
     28 N          63.2120   81.7513   12.3009 N.ar    1  UNL1       -0.2922
     29 C          63.0150   80.6406   11.3122 C.3     1  UNL1        0.1336
     30 C          62.9313   83.1696   11.9013 C.ar    1  UNL1        0.0783
     31 C          66.1695   93.7040   12.4902 C.3     1  UNL1        0.0586
     32 C          66.9051   92.8805   13.5054 C.3     1  UNL1        0.0831
     33 C          67.3083   91.9152   12.4303 C.3     1  UNL1        0.0153
     34 C          66.5020   93.8457   14.5804 C.3     1  UNL1        0.0153
     35 C          67.6408   92.0569   14.5205 C.1     1  UNL1        0.0712
     36 N          68.3766   91.2334   15.5356 N.1     1  UNL1       -0.1959
@<TRIPOS>BOND
     1    16    15    1
     2    16    17    1
     3    17    18   ar
     4    18    19   ar
     5    19    20   ar
     6    20    23    1
     7    23    24   ar
     8    24    25   ar
     9    25    26   ar
    10    26    27    2
    11    26    28   ar
    12    28    29    1
    13    28    30   ar
    14    20    21   ar
    15    21    22   ar
    16    16     1    1
    17     1     2    1
    18     2     3    1
    19     3     4    1
    20     4    31    1
    21    31    32    1
    22    32    33    1
    23    32    34    1
    24    32    35    1
    25    35    36    3
    26     4     8    1
    27     8     9   ar
    28     9    10   ar
    29    10    11   ar
    30    11    12    1
    31    11    13   ar
    32    13    14   ar
    33     4     5    1
    34     5     6    1
    35     6     7    2
    36    22    17   ar
    37     6     1   am
    38    30    23   ar
    39    14     8   ar
@<TRIPOS>MOLECULE
*****
 36 39 0 0 0
SMALL
GASTEIGER

@<TRIPOS>ATOM
      1 N          63.3273   90.7395   11.6835 N.am    1  UNL1       -0.2438
      2 C          63.5002   91.6219   10.4830 C.3     1  UNL1        0.1009
      3 C          64.7128   92.4969   10.3637 C.3     1  UNL1        0.0661
      4 C          65.7524   92.4893   11.4449 C.3     1  UNL1        0.1587
      5 O          65.5795   91.6068   12.6455 O.3     1  UNL1       -0.4375
      6 C          64.3669   90.7318   12.7648 C.2     1  UNL1        0.4051
      7 O          64.1940   89.8494   13.9653 O.2     1  UNL1       -0.2262
      8 C          66.3596   93.4898   10.5067 C.ar    1  UNL1        0.0139
      9 C          65.7726   94.8657   10.3950 C.ar    1  UNL1        0.0014
     10 C          66.3799   95.8663    9.4568 C.ar    1  UNL1        0.0294
     11 C          67.5741   95.4909    8.6304 C.ar    1  UNL1        0.1401
     12 F          68.1814   96.4915    7.6922 F       1  UNL1       -0.2042
     13 C          68.1611   94.1150    8.7421 C.ar    1  UNL1        0.0294
     14 C          67.5539   93.1145    9.6803 C.ar    1  UNL1        0.0014
     15 C          60.7579   90.4819   11.9698 C.3     1  UNL1        0.0265
     16 C          62.1147   89.8645   11.8028 C.3     1  UNL1        0.1011
     17 C          62.2590   88.3722   11.7550 C.ar    1  UNL1       -0.0042
     18 C          63.1902   87.6780   12.7041 C.ar    1  UNL1       -0.0027
     19 C          63.3344   86.1858   12.6564 C.ar    1  UNL1       -0.0002
     20 C          62.5475   85.3877   11.6595 C.ar    1  UNL1        0.0014
     21 C          61.6163   86.0819   10.7103 C.ar    1  UNL1       -0.0002
     22 C          61.4720   87.5742   10.7581 C.ar    1  UNL1       -0.0027
     23 C          62.6918   83.8954   11.6117 C.ar    1  UNL1        0.0175
     24 C          63.3481   83.2427   10.4314 C.ar    1  UNL1        0.0064
     25 C          63.4923   81.7504   10.3836 C.ar    1  UNL1        0.0608
     26 C          62.9803   80.9108   11.5163 C.ar    1  UNL1        0.2610
     27 O          63.1246   79.4185   11.4686 O.2     1  UNL1       -0.2670
     28 N          62.3240   81.5635   12.6967 N.ar    1  UNL1       -0.2922
     29 C          61.8120   80.7239   13.8294 C.3     1  UNL1        0.1336
     30 C          62.1798   83.0558   12.7444 C.ar    1  UNL1        0.0783
     31 C          67.0029   92.8292   12.2004 C.3     1  UNL1        0.0586
     32 C          66.9839   92.8774   13.6994 C.3     1  UNL1        0.0831
     33 C          66.1955   94.1525   13.6485 C.3     1  UNL1        0.0153
     34 C          67.7722   91.6023   13.7504 C.3     1  UNL1        0.0153
     35 C          66.9648   92.9257   15.1985 C.1     1  UNL1        0.0712
     36 N          66.9456   92.9738   16.6977 N.1     1  UNL1       -0.1959
@<TRIPOS>BOND
     1    16    15    1
     2    16    17    1
     3    17    18   ar
     4    18    19   ar
     5    19    20   ar
     6    20    23    1
     7    23    24   ar
     8    24    25   ar
     9    25    26   ar
    10    26    27    2
    11    26    28   ar
    12    28    29    1
    13    28    30   ar
    14    20    21   ar
    15    21    22   ar
    16    16     1    1
    17     1     2    1
    18     2     3    1
    19     3     4    1
    20     4    31    1
    21    31    32    1
    22    32    33    1
    23    32    34    1
    24    32    35    1
    25    35    36    3
    26     4     8    1
    27     8     9   ar
    28     9    10   ar
    29    10    11   ar
    30    11    12    1
    31    11    13   ar
    32    13    14   ar
    33     4     5    1
    34     5     6    1
    35     6     7    2
    36    22    17   ar
    37     6     1   am
    38    30    23   ar
    39    14     8   ar
@<TRIPOS>MOLECULE
*****
 36 39 0 0 0
SMALL
GASTEIGER

@<TRIPOS>ATOM
      1 N          63.6847   88.1246   13.9188 N.am    1  UNL1       -0.2438
      2 C          64.2121   86.9057   14.6162 C.3     1  UNL1        0.1009
      3 C          63.8391   85.5391   14.1230 C.3     1  UNL1        0.0661
      4 C          62.9386   85.3913   12.9326 C.3     1  UNL1        0.1587
      5 O          62.4112   86.6102   12.2352 O.3     1  UNL1       -0.4375
      6 C          62.7842   87.9768   12.7283 C.2     1  UNL1        0.4051
      7 O          62.2568   89.1956   12.0310 O.2     1  UNL1       -0.2262
      8 C          63.1828   83.9469   13.2554 C.ar    1  UNL1        0.0139
      9 C          62.0802   83.1113   13.8351 C.ar    1  UNL1        0.0014
     10 C          62.3244   81.6669   14.1580 C.ar    1  UNL1        0.0294
     11 C          63.6711   81.0583   13.9011 C.ar    1  UNL1        0.1401
     12 F          63.9152   79.6139   14.2239 F       1  UNL1       -0.2042
     13 C          64.7736   81.8939   13.3213 C.ar    1  UNL1        0.0294
     14 C          64.5295   83.3383   12.9985 C.ar    1  UNL1        0.0014
     15 C          63.8768   89.8416   15.8592 C.3     1  UNL1        0.0265
     16 C          64.0578   89.4912   14.4120 C.3     1  UNL1        0.1011
     17 C          64.6119   90.5074   13.4579 C.ar    1  UNL1       -0.0042
     18 C          65.9224   91.1755   13.7514 C.ar    1  UNL1       -0.0027
     19 C          66.4764   92.1917   12.7973 C.ar    1  UNL1       -0.0002
     20 C          65.7199   92.5398   11.5496 C.ar    1  UNL1        0.0014
     21 C          64.4094   91.8717   11.2561 C.ar    1  UNL1       -0.0002
     22 C          63.8554   90.8555   12.2102 C.ar    1  UNL1       -0.0027
     23 C          66.2740   93.5560   10.5955 C.ar    1  UNL1        0.0175
     24 C          67.6854   93.4313   10.1032 C.ar    1  UNL1        0.0064
     25 C          68.2395   94.4476    9.1490 C.ar    1  UNL1        0.0608
     26 C          67.3821   95.5885    8.6873 C.ar    1  UNL1        0.2610
     27 O          67.9362   96.6047    7.7332 O.2     1  UNL1       -0.2670
     28 N          65.9707   95.7132    9.1796 N.ar    1  UNL1       -0.2922
     29 C          65.1133   96.8541    8.7179 C.3     1  UNL1        0.1336
     30 C          65.4167   94.6970   10.1337 C.ar    1  UNL1        0.0783
     31 C          62.1229   84.7419   11.8542 C.3     1  UNL1        0.0586
     32 C          62.4504   84.9929   10.4121 C.3     1  UNL1        0.0831
     33 C          63.6064   84.0420   10.5090 C.3     1  UNL1        0.0153
     34 C          61.2944   85.9438   10.3151 C.3     1  UNL1        0.0153
     35 C          62.7779   85.2439    8.9699 C.1     1  UNL1        0.0712
     36 N          63.1056   85.4949    7.5278 N.1     1  UNL1       -0.1959
@<TRIPOS>BOND
     1    16    15    1
     2    16    17    1
     3    17    18   ar
     4    18    19   ar
     5    19    20   ar
     6    20    23    1
     7    23    24   ar
     8    24    25   ar
     9    25    26   ar
    10    26    27    2
    11    26    28   ar
    12    28    29    1
    13    28    30   ar
    14    20    21   ar
    15    21    22   ar
    16    16     1    1
    17     1     2    1
    18     2     3    1
    19     3     4    1
    20     4    31    1
    21    31    32    1
    22    32    33    1
    23    32    34    1
    24    32    35    1
    25    35    36    3
    26     4     8    1
    27     8     9   ar
    28     9    10   ar
    29    10    11   ar
    30    11    12    1
    31    11    13   ar
    32    13    14   ar
    33     4     5    1
    34     5     6    1
    35     6     7    2
    36    22    17   ar
    37     6     1   am
    38    30    23   ar
    39    14     8   ar
