@<TRIPOS>MOLECULE
*****
 30 32 0 0 0
SMALL
GASTEIGER

@<TRIPOS>ATOM
      1 C          63.9024   88.4438   14.8540 C.3     1  UNL1        0.0527
      2 C          63.9280   89.4414   13.7341 C.ar    1  UNL1        0.0673
      3 N          64.5073   90.8235   13.7976 N.ar    1  UNL1       -0.2282
      4 C          64.3162   91.4683   12.4567 C.ar    1  UNL1        0.1664
      5 S          63.6188   90.4846   11.5646 S.2     1  UNL1       -0.0517
      6 C          63.3789   89.2319   12.3540 C.ar    1  UNL1        0.0457
      7 N          64.7469   92.8535   12.0751 N.am    1  UNL1       -0.2483
      8 C          65.8802   93.0479   11.1119 C.2     1  UNL1        0.3094
      9 O          66.5829   91.8571   10.5303 O.2     1  UNL1       -0.2522
     10 N          66.3109   94.4332   10.7302 N.am    1  UNL1       -0.2572
     11 C          65.7065   95.7128   11.2275 C.3     1  UNL1        0.0955
     12 C          66.4436   96.8524   10.5889 C.3     1  UNL1        0.0238
     13 C          67.5036   96.2771    9.6970 C.3     1  UNL1        0.0310
     14 C          67.4215   94.7819    9.7844 C.3     1  UNL1        0.1528
     15 H          64.2857   93.6351   12.4568 H       1  UNL1        0.1583
     16 C          68.2965   93.8068    9.0541 C.2     1  UNL1        0.2375
     17 N          69.3531   93.0445    9.7973 N.am    1  UNL1       -0.3275
     18 O          68.1150   93.5940    7.5803 O.2     1  UNL1       -0.2736
     19 H          69.4723   93.1841   10.7645 H       1  UNL1        0.1450
     20 H          69.9274   92.4045    9.3179 H       1  UNL1        0.1450
     21 C          62.7076   87.9881   11.8516 C.ar    1  UNL1        0.0099
     22 C          61.5614   88.0908   10.8896 C.ar    1  UNL1        0.0212
     23 C          60.8902   86.8470   10.3872 C.ar    1  UNL1        0.0985
     24 N          61.3653   85.5005   10.8468 N.ar    1  UNL1       -0.2482
     25 C          62.5116   85.3978   11.8088 C.ar    1  UNL1        0.0583
     26 C          63.1827   86.6416   12.3112 C.ar    1  UNL1        0.0153
     27 C          62.9867   84.0513   12.2683 C.3     1  UNL1        0.0355
     28 C          63.1704   83.6288   10.8408 C.3     1  UNL1        0.0059
     29 C          62.8030   84.4737   13.6959 C.3     1  UNL1        0.0059
     30 C          63.4618   82.7048   12.7279 C.3     1  UNL1        0.0059
@<TRIPOS>BOND
     1     1     2    1
     2     2     3   ar
     3     3     4   ar
     4     4     7    1
     5     7     8   am
     6     8     9    2
     7     8    10   am
     8    10    11    1
     9    11    12    1
    10    12    13    1
    11    13    14    1
    12    14    16    1
    13    16    17   am
    14    16    18    2
    15     4     5   ar
    16     5     6   ar
    17     6    21    1
    18    21    22   ar
    19    22    23   ar
    20    23    24   ar
    21    24    25   ar
    22    25    27    1
    23    27    28    1
    24    27    29    1
    25    27    30    1
    26    25    26   ar
    27     6     2   ar
    28    26    21   ar
    29    14    10    1
    30     7    15    1
    31    17    19    1
    32    17    20    1
@<TRIPOS>MOLECULE
*****
 30 32 0 0 0
SMALL
GASTEIGER

@<TRIPOS>ATOM
      1 C          62.5096   88.1320   11.6120 C.3     1  UNL1        0.0527
      2 C          63.2147   89.3371   12.1603 C.ar    1  UNL1        0.0673
      3 N          63.5312   90.5933   11.4042 N.ar    1  UNL1       -0.2282
      4 C          64.2392   91.5302   12.3375 C.ar    1  UNL1        0.1664
      5 S          64.3602   90.8529   13.6704 S.2     1  UNL1       -0.0517
      6 C          63.7271   89.4975   13.5609 C.ar    1  UNL1        0.0457
      7 N          64.7385   92.9032   11.9976 N.am    1  UNL1       -0.2483
      8 C          65.8845   93.0698   11.0441 C.2     1  UNL1        0.3094
      9 O          66.5312   91.8633   10.4306 O.2     1  UNL1       -0.2522
     10 N          66.3838   94.4427   10.7042 N.am    1  UNL1       -0.2572
     11 C          65.8400   95.7354   11.2363 C.3     1  UNL1        0.0955
     12 C          66.6346   96.8557   10.6334 C.3     1  UNL1        0.0238
     13 C          67.6696   96.2554    9.7288 C.3     1  UNL1        0.0310
     14 C          67.5146   94.7640    9.7725 C.3     1  UNL1        0.1528
     15 H          64.3141   93.6950   12.4002 H       1  UNL1        0.1583
     16 C          68.3446   93.7689    9.0172 C.2     1  UNL1        0.2375
     17 N          69.3516   92.9270    9.7434 N.am    1  UNL1       -0.3275
     18 O          68.1677   93.6154    7.5355 O.2     1  UNL1       -0.2736
     19 H          69.4677   93.0277   10.7158 H       1  UNL1        0.1450
     20 H          69.8964   92.2739    9.2476 H       1  UNL1        0.1450
     21 C          63.6243   88.4810   14.6592 C.ar    1  UNL1        0.0099
     22 C          63.2639   88.9131   16.0497 C.ar    1  UNL1        0.0212
     23 C          63.1611   87.8966   17.1479 C.ar    1  UNL1        0.0985
     24 N          63.4188   86.4481   16.8557 N.ar    1  UNL1       -0.2482
     25 C          63.7792   86.0160   15.4653 C.ar    1  UNL1        0.0583
     26 C          63.8820   87.0325   14.3670 C.ar    1  UNL1        0.0153
     27 C          64.0369   84.5675   15.1731 C.3     1  UNL1        0.0355
     28 C          65.3379   84.9305   14.5207 C.3     1  UNL1        0.0059
     29 C          62.7359   84.2045   15.8254 C.3     1  UNL1        0.0059
     30 C          64.2945   83.1190   14.8809 C.3     1  UNL1        0.0059
@<TRIPOS>BOND
     1     1     2    1
     2     2     3   ar
     3     3     4   ar
     4     4     7    1
     5     7     8   am
     6     8     9    2
     7     8    10   am
     8    10    11    1
     9    11    12    1
    10    12    13    1
    11    13    14    1
    12    14    16    1
    13    16    17   am
    14    16    18    2
    15     4     5   ar
    16     5     6   ar
    17     6    21    1
    18    21    22   ar
    19    22    23   ar
    20    23    24   ar
    21    24    25   ar
    22    25    27    1
    23    27    28    1
    24    27    29    1
    25    27    30    1
    26    25    26   ar
    27     6     2   ar
    28    26    21   ar
    29    14    10    1
    30     7    15    1
    31    17    19    1
    32    17    20    1
@<TRIPOS>MOLECULE
*****
 30 32 0 0 0
SMALL
GASTEIGER

@<TRIPOS>ATOM
      1 C          61.8809   90.5161   11.6675 C.3     1  UNL1        0.0527
      2 C          62.4824   89.1833   12.0020 C.ar    1  UNL1        0.0673
      3 N          62.2884   87.9105   11.2324 N.ar    1  UNL1       -0.2282
      4 C          63.0695   86.8298   11.9195 C.ar    1  UNL1        0.1664
      5 S          63.7461   87.4348   13.1137 S.2     1  UNL1       -0.0517
      6 C          63.3833   88.8893   13.1647 C.ar    1  UNL1        0.0457
      7 N          63.1583   85.3959   11.4882 N.am    1  UNL1       -0.2483
      8 C          62.7368   84.3032   12.4254 C.2     1  UNL1        0.3094
      9 O          62.2263   84.6445   13.7941 O.2     1  UNL1       -0.2522
     10 N          62.8256   82.8694   11.9940 N.am    1  UNL1       -0.2572
     11 C          63.3131   82.3776   10.6635 C.3     1  UNL1        0.0955
     12 C          63.2313   80.8798   10.6646 C.3     1  UNL1        0.0238
     13 C          62.6932   80.4460   11.9959 C.3     1  UNL1        0.0310
     14 C          62.4425   81.6756   12.8175 C.3     1  UNL1        0.1528
     15 H          63.4933   85.1719   10.5899 H       1  UNL1        0.1583
     16 C          61.9033   81.7061   14.2169 C.2     1  UNL1        0.2375
     17 N          62.7015   82.3449   15.3145 N.am    1  UNL1       -0.3275
     18 O          60.5658   81.0977   14.5187 O.2     1  UNL1       -0.2736
     19 H          63.5793   82.7442   15.1165 H       1  UNL1        0.1450
     20 H          62.3476   82.3648   16.2330 H       1  UNL1        0.1450
     21 C          63.8410   89.8766   14.1972 C.ar    1  UNL1        0.0099
     22 C          63.0177   90.1094   15.4292 C.ar    1  UNL1        0.0212
     23 C          63.4755   91.0966   16.4616 C.ar    1  UNL1        0.0985
     24 N          64.7565   91.8510   16.2619 N.ar    1  UNL1       -0.2482
     25 C          65.5797   91.6182   15.0299 C.ar    1  UNL1        0.0583
     26 C          65.1220   90.6310   13.9975 C.ar    1  UNL1        0.0153
     27 C          66.8607   92.3727   14.8302 C.3     1  UNL1        0.0355
     28 C          66.8512   92.0041   13.3762 C.3     1  UNL1        0.0059
     29 C          66.8703   92.7413   16.2842 C.3     1  UNL1        0.0059
     30 C          68.1417   93.1271   14.6305 C.3     1  UNL1        0.0059
@<TRIPOS>BOND
     1     1     2    1
     2     2     3   ar
     3     3     4   ar
     4     4     7    1
     5     7     8   am
     6     8     9    2
     7     8    10   am
     8    10    11    1
     9    11    12    1
    10    12    13    1
    11    13    14    1
    12    14    16    1
    13    16    17   am
    14    16    18    2
    15     4     5   ar
    16     5     6   ar
    17     6    21    1
    18    21    22   ar
    19    22    23   ar
    20    23    24   ar
    21    24    25   ar
    22    25    27    1
    23    27    28    1
    24    27    29    1
    25    27    30    1
    26    25    26   ar
    27     6     2   ar
    28    26    21   ar
    29    14    10    1
    30     7    15    1
    31    17    19    1
    32    17    20    1
@<TRIPOS>MOLECULE
*****
 30 32 0 0 0
SMALL
GASTEIGER

@<TRIPOS>ATOM
      1 C          63.2464   90.0612   17.0888 C.3     1  UNL1        0.0527
      2 C          63.4455   88.9022   16.1577 C.ar    1  UNL1        0.0673
      3 N          62.9740   87.4967   16.3862 N.ar    1  UNL1       -0.2282
      4 C          63.3882   86.6709   15.2044 C.ar    1  UNL1        0.1664
      5 S          64.1157   87.5660   14.2456 S.2     1  UNL1       -0.0517
      6 C          64.1512   88.9450   14.8348 C.ar    1  UNL1        0.0457
      7 N          63.1216   85.2070   15.0148 N.am    1  UNL1       -0.2483
      8 C          63.3045   84.5801   13.6644 C.2     1  UNL1        0.3094
      9 O          63.7539   85.4172   12.5035 O.2     1  UNL1       -0.2522
     10 N          63.0380   83.1162   13.4747 N.am    1  UNL1       -0.2572
     11 C          62.5860   82.1576   14.5362 C.3     1  UNL1        0.0955
     12 C          62.4453   80.8029   13.9078 C.3     1  UNL1        0.0238
     13 C          62.8103   80.9242   12.4580 C.3     1  UNL1        0.0310
     14 C          63.1766   82.3540   12.1903 C.3     1  UNL1        0.1528
     15 H          62.8267   84.6576   15.7766 H       1  UNL1        0.1583
     16 C          63.6061   82.9217   10.8701 C.2     1  UNL1        0.2375
     17 N          62.8187   84.0315   10.2390 N.am    1  UNL1       -0.3275
     18 O          64.8232   82.3796   10.1808 O.2     1  UNL1       -0.2736
     19 H          62.0200   84.3873   10.6913 H       1  UNL1        0.1450
     20 H          63.1007   84.4041    9.3724 H       1  UNL1        0.1450
     21 C          64.7816   90.1546   14.2105 C.ar    1  UNL1        0.0099
     22 C          64.1889   90.7530   12.9693 C.ar    1  UNL1        0.0212
     23 C          64.8193   91.9625   12.3451 C.ar    1  UNL1        0.0985
     24 N          66.0424   92.5736   12.9621 N.ar    1  UNL1       -0.2482
     25 C          66.6351   91.9752   14.2033 C.ar    1  UNL1        0.0583
     26 C          66.0046   90.7657   14.8275 C.ar    1  UNL1        0.0153
     27 C          67.8581   92.5862   14.8203 C.3     1  UNL1        0.0355
     28 C          67.0451   93.0177   16.0047 C.3     1  UNL1        0.0059
     29 C          68.6712   92.1548   13.6359 C.3     1  UNL1        0.0059
     30 C          69.0812   93.1973   15.4373 C.3     1  UNL1        0.0059
@<TRIPOS>BOND
     1     1     2    1
     2     2     3   ar
     3     3     4   ar
     4     4     7    1
     5     7     8   am
     6     8     9    2
     7     8    10   am
     8    10    11    1
     9    11    12    1
    10    12    13    1
    11    13    14    1
    12    14    16    1
    13    16    17   am
    14    16    18    2
    15     4     5   ar
    16     5     6   ar
    17     6    21    1
    18    21    22   ar
    19    22    23   ar
    20    23    24   ar
    21    24    25   ar
    22    25    27    1
    23    27    28    1
    24    27    29    1
    25    27    30    1
    26    25    26   ar
    27     6     2   ar
    28    26    21   ar
    29    14    10    1
    30     7    15    1
    31    17    19    1
    32    17    20    1
@<TRIPOS>MOLECULE
*****
 30 32 0 0 0
SMALL
GASTEIGER

@<TRIPOS>ATOM
      1 C          60.9257   89.9988   11.3633 C.3     1  UNL1        0.0527
      2 C          61.7837   88.7878   11.5802 C.ar    1  UNL1        0.0673
      3 N          61.5401   87.4213   11.0115 N.ar    1  UNL1       -0.2282
      4 C          62.6418   86.5195   11.4837 C.ar    1  UNL1        0.1664
      5 S          63.5664   87.3286   12.3442 S.2     1  UNL1       -0.0517
      6 C          63.0360   88.7305   12.4038 C.ar    1  UNL1        0.0457
      7 N          62.7926   85.0641   11.1533 N.am    1  UNL1       -0.2483
      8 C          62.4756   84.0238   12.1864 C.2     1  UNL1        0.3094
      9 O          62.0079   84.4389   13.5499 O.2     1  UNL1       -0.2522
     10 N          62.6263   82.5684   11.8561 N.am    1  UNL1       -0.2572
     11 C          63.0814   82.0050   10.5425 C.3     1  UNL1        0.0955
     12 C          63.0848   80.5093   10.6559 C.3     1  UNL1        0.0238
     13 C          62.6318   80.1484   12.0396 C.3     1  UNL1        0.0310
     14 C          62.3485   81.4210   12.7813 C.3     1  UNL1        0.1528
     15 H          63.0995   84.7917   10.2584 H       1  UNL1        0.1583
     16 C          61.8711   81.5274   14.1993 C.2     1  UNL1        0.2375
     17 N          62.7052   82.2435   15.2198 N.am    1  UNL1       -0.3275
     18 O          60.5595   80.9176   14.5969 O.2     1  UNL1       -0.2736
     19 H          63.5660   82.6437   14.9589 H       1  UNL1        0.1450
     20 H          62.3918   82.3132   16.1505 H       1  UNL1        0.1450
     21 C          63.6502   89.8743   13.1553 C.ar    1  UNL1        0.0099
     22 C          63.5382   89.9362   14.6498 C.ar    1  UNL1        0.0212
     23 C          64.1524   91.0800   15.4011 C.ar    1  UNL1        0.0985
     24 N          64.8786   92.1618   14.6580 N.ar    1  UNL1       -0.2482
     25 C          64.9906   92.0999   13.1635 C.ar    1  UNL1        0.0583
     26 C          64.3764   90.9561   12.4121 C.ar    1  UNL1        0.0153
     27 C          65.7168   93.1817   12.4203 C.3     1  UNL1        0.0355
     28 C          66.4223   93.5762   13.6839 C.3     1  UNL1        0.0059
     29 C          65.0114   92.7872   11.1567 C.3     1  UNL1        0.0059
     30 C          66.4430   94.2635   11.6772 C.3     1  UNL1        0.0059
@<TRIPOS>BOND
     1     1     2    1
     2     2     3   ar
     3     3     4   ar
     4     4     7    1
     5     7     8   am
     6     8     9    2
     7     8    10   am
     8    10    11    1
     9    11    12    1
    10    12    13    1
    11    13    14    1
    12    14    16    1
    13    16    17   am
    14    16    18    2
    15     4     5   ar
    16     5     6   ar
    17     6    21    1
    18    21    22   ar
    19    22    23   ar
    20    23    24   ar
    21    24    25   ar
    22    25    27    1
    23    27    28    1
    24    27    29    1
    25    27    30    1
    26    25    26   ar
    27     6     2   ar
    28    26    21   ar
    29    14    10    1
    30     7    15    1
    31    17    19    1
    32    17    20    1
@<TRIPOS>MOLECULE
*****
 30 32 0 0 0
SMALL
GASTEIGER

@<TRIPOS>ATOM
      1 C          58.7018   89.2211   11.8596 C.3     1  UNL1        0.0527
      2 C          60.2014   89.2011   11.8898 C.ar    1  UNL1        0.0673
      3 N          61.0719   89.8780   12.9066 N.ar    1  UNL1       -0.2282
      4 C          62.5023   89.5959   12.5537 C.ar    1  UNL1        0.1664
      5 S          62.5157   88.7446   11.3188 S.2     1  UNL1       -0.0517
      6 C          61.0937   88.5006   10.9085 C.ar    1  UNL1        0.0457
      7 N          63.7075   90.0801   13.3041 N.am    1  UNL1       -0.2483
      8 C          64.5770   91.1513   12.7155 C.2     1  UNL1        0.3094
      9 O          64.2412   91.7384   11.3765 O.2     1  UNL1       -0.2522
     10 N          65.7822   91.6355   13.4658 N.am    1  UNL1       -0.2572
     11 C          66.2413   91.1455   14.8071 C.3     1  UNL1        0.0955
     12 C          67.4827   91.9019   15.1768 C.3     1  UNL1        0.0238
     13 C          67.7909   92.8593   14.0640 C.3     1  UNL1        0.0310
     14 C          66.7399   92.6946   13.0065 C.3     1  UNL1        0.1528
     15 H          63.9278   89.6948   14.1828 H       1  UNL1        0.1583
     16 C          66.6606   93.4556   11.7163 C.2     1  UNL1        0.2375
     17 N          65.6743   94.5757   11.5655 N.am    1  UNL1       -0.3275
     18 O          67.5676   93.0965   10.5768 O.2     1  UNL1       -0.2736
     19 H          65.0790   94.8114   12.3134 H       1  UNL1        0.1450
     20 H          65.6223   95.0751   10.7187 H       1  UNL1        0.1450
     21 C          60.6432   87.6971    9.7246 C.ar    1  UNL1        0.0099
     22 C          59.2360   87.8268    9.2218 C.ar    1  UNL1        0.0212
     23 C          58.7855   87.0233    8.0379 C.ar    1  UNL1        0.0985
     24 N          59.7423   86.0901    7.3570 N.ar    1  UNL1       -0.2482
     25 C          61.1495   85.9604    7.8598 C.ar    1  UNL1        0.0583
     26 C          61.5999   86.7638    9.0436 C.ar    1  UNL1        0.0153
     27 C          62.1062   85.0271    7.1788 C.3     1  UNL1        0.0355
     28 C          63.1539   85.3554    8.2009 C.3     1  UNL1        0.0059
     29 C          61.0586   84.6989    6.1567 C.3     1  UNL1        0.0059
     30 C          63.0630   84.0939    6.4978 C.3     1  UNL1        0.0059
@<TRIPOS>BOND
     1     1     2    1
     2     2     3   ar
     3     3     4   ar
     4     4     7    1
     5     7     8   am
     6     8     9    2
     7     8    10   am
     8    10    11    1
     9    11    12    1
    10    12    13    1
    11    13    14    1
    12    14    16    1
    13    16    17   am
    14    16    18    2
    15     4     5   ar
    16     5     6   ar
    17     6    21    1
    18    21    22   ar
    19    22    23   ar
    20    23    24   ar
    21    24    25   ar
    22    25    27    1
    23    27    28    1
    24    27    29    1
    25    27    30    1
    26    25    26   ar
    27     6     2   ar
    28    26    21   ar
    29    14    10    1
    30     7    15    1
    31    17    19    1
    32    17    20    1
@<TRIPOS>MOLECULE
*****
 30 32 0 0 0
SMALL
GASTEIGER

@<TRIPOS>ATOM
      1 C          60.2933   90.2734   11.0905 C.3     1  UNL1        0.0527
      2 C          61.2166   89.1028   11.2553 C.ar    1  UNL1        0.0673
      3 N          60.8270   87.6560   11.1858 N.ar    1  UNL1       -0.2282
      4 C          62.0613   86.8324   11.4061 C.ar    1  UNL1        0.1664
      5 S          63.2137   87.7703   11.6117 S.2     1  UNL1       -0.0517
      6 C          62.6917   89.1735   11.5185 C.ar    1  UNL1        0.0457
      7 N          62.1309   85.3341   11.4185 N.am    1  UNL1       -0.2483
      8 C          62.5690   84.6139   12.6592 C.2     1  UNL1        0.3094
      9 O          62.9376   85.3921   13.8876 O.2     1  UNL1       -0.2522
     10 N          62.6386   83.1156   12.6717 N.am    1  UNL1       -0.2572
     11 C          62.3028   82.2079   11.5258 C.3     1  UNL1        0.0955
     12 C          62.5129   80.7932   11.9781 C.3     1  UNL1        0.0238
     13 C          62.9786   80.8267   13.4036 C.3     1  UNL1        0.0310
     14 C          63.0564   82.2621   13.8322 C.3     1  UNL1        0.1528
     15 H          61.8890   84.8234   10.6124 H       1  UNL1        0.1583
     16 C          63.4778   82.7568   15.1840 C.2     1  UNL1        0.2375
     17 N          62.4762   83.4105   16.0893 N.am    1  UNL1       -0.3275
     18 O          64.9010   82.5980   15.6307 O.2     1  UNL1       -0.2736
     19 H          61.5421   83.5148   15.7962 H       1  UNL1        0.1450
     20 H          62.7528   83.7352   16.9766 H       1  UNL1        0.1450
     21 C          63.5024   90.4273   11.6631 C.ar    1  UNL1        0.0099
     22 C          63.6185   91.3823   10.5123 C.ar    1  UNL1        0.0212
     23 C          64.4292   92.6359   10.6570 C.ar    1  UNL1        0.0985
     24 N          65.1238   92.9346   11.9525 N.ar    1  UNL1       -0.2482
     25 C          65.0077   91.9796   13.1033 C.ar    1  UNL1        0.0583
     26 C          64.1970   90.7260   12.9586 C.ar    1  UNL1        0.0153
     27 C          65.7023   92.2783   14.3988 C.3     1  UNL1        0.0355
     28 C          64.9514   91.1602   15.0592 C.3     1  UNL1        0.0059
     29 C          66.4532   93.3964   13.7385 C.3     1  UNL1        0.0059
     30 C          66.3969   92.5770   15.6943 C.3     1  UNL1        0.0059
@<TRIPOS>BOND
     1     1     2    1
     2     2     3   ar
     3     3     4   ar
     4     4     7    1
     5     7     8   am
     6     8     9    2
     7     8    10   am
     8    10    11    1
     9    11    12    1
    10    12    13    1
    11    13    14    1
    12    14    16    1
    13    16    17   am
    14    16    18    2
    15     4     5   ar
    16     5     6   ar
    17     6    21    1
    18    21    22   ar
    19    22    23   ar
    20    23    24   ar
    21    24    25   ar
    22    25    27    1
    23    27    28    1
    24    27    29    1
    25    27    30    1
    26    25    26   ar
    27     6     2   ar
    28    26    21   ar
    29    14    10    1
    30     7    15    1
    31    17    19    1
    32    17    20    1
@<TRIPOS>MOLECULE
*****
 30 32 0 0 0
SMALL
GASTEIGER

@<TRIPOS>ATOM
      1 C          62.5718   89.8328   10.7500 C.3     1  UNL1        0.0527
      2 C          62.8730   88.8097   11.8048 C.ar    1  UNL1        0.0673
      3 N          62.3681   87.3976   11.8329 N.ar    1  UNL1       -0.2282
      4 C          62.9149   86.7342   13.0622 C.ar    1  UNL1        0.1664
      5 S          63.7578   87.7364   13.7936 S.2     1  UNL1       -0.0517
      6 C          63.7318   89.0192   13.0165 C.ar    1  UNL1        0.0457
      7 N          62.6631   85.3174   13.4855 N.am    1  UNL1       -0.2483
      8 C          62.9478   84.1897   12.5383 C.2     1  UNL1        0.3094
      9 O          63.4843   84.4789   11.1676 O.2     1  UNL1       -0.2522
     10 N          62.6960   82.7729   12.9616 N.am    1  UNL1       -0.2572
     11 C          62.1644   82.3318   14.2931 C.3     1  UNL1        0.0955
     12 C          62.0715   80.8347   14.2822 C.3     1  UNL1        0.0238
     13 C          62.5456   80.3506   12.9440 C.3     1  UNL1        0.0310
     14 C          62.9315   81.5485   12.1278 C.3     1  UNL1        0.1528
     15 H          62.3110   85.1276   14.3851 H       1  UNL1        0.1583
     16 C          63.4602   81.5258   10.7243 C.2     1  UNL1        0.2375
     17 N          64.5511   82.4719   10.3183 N.am    1  UNL1       -0.3275
     18 O          62.8980   80.5570    9.7266 O.2     1  UNL1       -0.2736
     19 H          64.9202   83.1078   10.9731 H       1  UNL1        0.1450
     20 H          64.8981   82.4570    9.3971 H       1  UNL1        0.1450
     21 C          64.4404   90.2886   13.3863 C.ar    1  UNL1        0.0099
     22 C          64.8184   90.5478   14.8146 C.ar    1  UNL1        0.0212
     23 C          65.5269   91.8171   15.1843 C.ar    1  UNL1        0.0985
     24 N          65.8575   92.8272   14.1258 N.ar    1  UNL1       -0.2482
     25 C          65.4796   92.5679   12.6976 C.ar    1  UNL1        0.0583
     26 C          64.7711   91.2986   12.3278 C.ar    1  UNL1        0.0153
     27 C          65.8102   93.5780   11.6391 C.3     1  UNL1        0.0355
     28 C          65.2742   92.6519   10.5879 C.3     1  UNL1        0.0059
     29 C          66.3463   94.5041   12.6902 C.3     1  UNL1        0.0059
     30 C          66.1409   94.5881   10.5806 C.3     1  UNL1        0.0059
@<TRIPOS>BOND
     1     1     2    1
     2     2     3   ar
     3     3     4   ar
     4     4     7    1
     5     7     8   am
     6     8     9    2
     7     8    10   am
     8    10    11    1
     9    11    12    1
    10    12    13    1
    11    13    14    1
    12    14    16    1
    13    16    17   am
    14    16    18    2
    15     4     5   ar
    16     5     6   ar
    17     6    21    1
    18    21    22   ar
    19    22    23   ar
    20    23    24   ar
    21    24    25   ar
    22    25    27    1
    23    27    28    1
    24    27    29    1
    25    27    30    1
    26    25    26   ar
    27     6     2   ar
    28    26    21   ar
    29    14    10    1
    30     7    15    1
    31    17    19    1
    32    17    20    1
@<TRIPOS>MOLECULE
*****
 30 32 0 0 0
SMALL
GASTEIGER

@<TRIPOS>ATOM
      1 C          62.6996   85.1056   12.7491 C.3     1  UNL1        0.0527
      2 C          63.0250   86.5694   12.7856 C.ar    1  UNL1        0.0673
      3 N          63.8871   87.2558   13.8032 N.ar    1  UNL1       -0.2282
      4 C          63.9404   88.7145   13.4575 C.ar    1  UNL1        0.1664
      5 S          63.1112   88.9295   12.2261 S.2     1  UNL1       -0.0517
      6 C          62.5455   87.6038   11.8109 C.ar    1  UNL1        0.0457
      7 N          64.6910   89.7724   14.2107 N.am    1  UNL1       -0.2483
      8 C          65.2570   90.9541   13.4806 C.2     1  UNL1        0.3094
      9 O          65.0724   91.0780   11.9971 O.2     1  UNL1       -0.2522
     10 N          66.0077   92.0120   14.2339 N.am    1  UNL1       -0.2572
     11 C          66.2707   92.0239   15.7106 C.3     1  UNL1        0.0955
     12 C          67.0527   93.2629   16.0321 C.3     1  UNL1        0.0238
     13 C          67.2729   94.0167   14.7541 C.3     1  UNL1        0.0310
     14 C          66.6270   93.2436   13.6427 C.3     1  UNL1        0.1528
     15 H          64.8122   89.6911   15.1844 H       1  UNL1        0.1583
     16 C          66.6045   93.6336   12.1946 C.2     1  UNL1        0.2375
     17 N          67.3070   92.7835   11.1778 N.am    1  UNL1       -0.3275
     18 O          65.8794   94.8739   11.7630 O.2     1  UNL1       -0.2736
     19 H          67.7829   91.9695   11.4609 H       1  UNL1        0.1450
     20 H          67.2922   93.0396   10.2273 H       1  UNL1        0.1450
     21 C          61.6563   87.3560   10.6285 C.ar    1  UNL1        0.0099
     22 C          60.3268   88.0439   10.5326 C.ar    1  UNL1        0.0212
     23 C          59.4377   87.7960    9.3503 C.ar    1  UNL1        0.0985
     24 N          59.8780   86.8603    8.2638 N.ar    1  UNL1       -0.2482
     25 C          61.2075   86.1724    8.3596 C.ar    1  UNL1        0.0583
     26 C          62.0966   86.4202    9.5420 C.ar    1  UNL1        0.0153
     27 C          61.6479   85.2367    7.2731 C.3     1  UNL1        0.0355
     28 C          60.2692   85.2727    6.6833 C.3     1  UNL1        0.0059
     29 C          63.0266   85.2007    7.8630 C.3     1  UNL1        0.0059
     30 C          62.0883   84.3010    6.1866 C.3     1  UNL1        0.0059
@<TRIPOS>BOND
     1     1     2    1
     2     2     3   ar
     3     3     4   ar
     4     4     7    1
     5     7     8   am
     6     8     9    2
     7     8    10   am
     8    10    11    1
     9    11    12    1
    10    12    13    1
    11    13    14    1
    12    14    16    1
    13    16    17   am
    14    16    18    2
    15     4     5   ar
    16     5     6   ar
    17     6    21    1
    18    21    22   ar
    19    22    23   ar
    20    23    24   ar
    21    24    25   ar
    22    25    27    1
    23    27    28    1
    24    27    29    1
    25    27    30    1
    26    25    26   ar
    27     6     2   ar
    28    26    21   ar
    29    14    10    1
    30     7    15    1
    31    17    19    1
    32    17    20    1
