@<TRIPOS>MOLECULE
*****
 25 27 0 0 0
SMALL
GASTEIGER

@<TRIPOS>ATOM
      1 N          64.4798   90.8444   13.4385 N.am    1  UNL1       -0.2185
      2 C          63.8898   91.0884   12.0811 C.2     1  UNL1        0.2546
      3 O          62.8079   90.2776   11.4313 O.2     1  UNL1       -0.2723
      4 C          64.5715   92.2855   11.4877 C.3     1  UNL1        0.1795
      5 N          65.5829   92.7814   12.4782 N.am    1  UNL1       -0.2783
      6 C          65.5262   91.8907   13.6839 C.2     1  UNL1        0.1482
      7 S          66.3681   92.0232   14.9182 S.2     1  UNL1       -0.0177
      8 C          63.3151   87.5517   16.2760 C.ar    1  UNL1        0.0587
      9 C          62.9962   88.9785   16.6114 C.ar    1  UNL1        0.0167
     10 C          63.3844   90.0761   15.6655 C.ar    1  UNL1        0.0166
     11 C          64.0915   89.7468   14.3843 C.ar    1  UNL1        0.0607
     12 C          64.4104   88.3200   14.0489 C.ar    1  UNL1        0.0279
     13 C          64.0221   87.2225   14.9948 C.ar    1  UNL1        0.0722
     14 CL         64.3410   85.7956   14.6593 Cl      1  UNL1       -0.0809
     15 C          62.7810   86.7429   18.6865 C.3     1  UNL1        0.1123
     16 N          62.9268   86.4541   17.2218 N.pl3   1  UNL1       -0.3034
     17 C          62.6844   85.0678   16.7030 C.3     1  UNL1        0.1123
     18 C          66.4914   93.9608   12.2953 C.3     1  UNL1        0.1196
     19 C          66.5258   94.6845   10.9819 C.ar    1  UNL1       -0.0022
     20 C          65.7976   95.9863   10.8236 C.ar    1  UNL1       -0.0003
     21 C          65.8319   96.7100    9.5103 C.ar    1  UNL1        0.0294
     22 C          66.5944   96.1320    8.3551 C.ar    1  UNL1        0.1401
     23 F          66.6288   96.8557    7.0417 F       1  UNL1       -0.2042
     24 C          67.3227   94.8302    8.5134 C.ar    1  UNL1        0.0294
     25 C          67.2883   94.1064    9.8268 C.ar    1  UNL1       -0.0003
@<TRIPOS>BOND
     1    15    16    1
     2    16    17    1
     3    16     8    1
     4     8     9   ar
     5     9    10   ar
     6    10    11   ar
     7    11     1    1
     8     1     2   am
     9     2     3    2
    10     2     4    1
    11     4     5    1
    12     5    18    1
    13    18    19    1
    14    19    20   ar
    15    20    21   ar
    16    21    22   ar
    17    22    23    1
    18    22    24   ar
    19    24    25   ar
    20     5     6    1
    21     6     7    2
    22    11    12   ar
    23    12    13   ar
    24    13    14    1
    25    13     8   ar
    26     6     1    1
    27    25    19   ar
@<TRIPOS>MOLECULE
*****
 25 27 0 0 0
SMALL
GASTEIGER

@<TRIPOS>ATOM
      1 N          63.2177   88.1795   12.5573 N.am    1  UNL1       -0.2185
      2 C          62.8529   89.2003   11.5206 C.2     1  UNL1        0.2546
      3 O          62.3171   88.9119   10.1495 O.2     1  UNL1       -0.2723
      4 C          63.1179   90.5601   12.0955 C.3     1  UNL1        0.1795
      5 N          63.6465   90.3797   13.4877 N.am    1  UNL1       -0.2783
      6 C          63.7082   88.9084   13.7730 C.2     1  UNL1        0.1482
      7 S          64.1779   88.2770   15.0500 S.2     1  UNL1       -0.0177
      8 C          62.8970   83.7142   12.1005 C.ar    1  UNL1        0.0587
      9 C          62.2271   84.6195   11.1098 C.ar    1  UNL1        0.0167
     10 C          62.3340   86.1079   11.2620 C.ar    1  UNL1        0.0166
     11 C          63.1108   86.6910   12.4051 C.ar    1  UNL1        0.0607
     12 C          63.7807   85.7857   13.3958 C.ar    1  UNL1        0.0279
     13 C          63.6738   84.2973   13.2436 C.ar    1  UNL1        0.0722
     14 CL         64.3437   83.3920   14.2344 Cl      1  UNL1       -0.0809
     15 C          62.0520   81.4180   12.9742 C.3     1  UNL1        0.1123
     16 N          62.7901   82.2258   11.9483 N.pl3   1  UNL1       -0.3034
     17 C          63.4214   81.5451   10.7701 C.3     1  UNL1        0.1123
     18 C          64.0437   91.4779   14.4292 C.3     1  UNL1        0.1196
     19 C          65.4894   91.8465   14.5842 C.ar    1  UNL1       -0.0022
     20 C          65.9768   92.4461   15.8699 C.ar    1  UNL1       -0.0003
     21 C          67.4224   92.8147   16.0250 C.ar    1  UNL1        0.0294
     22 C          68.3808   92.5838   14.8944 C.ar    1  UNL1        0.1401
     23 F          69.8265   92.9524   15.0495 F       1  UNL1       -0.2042
     24 C          67.8934   91.9842   13.6087 C.ar    1  UNL1        0.0294
     25 C          66.4477   91.6155   13.4537 C.ar    1  UNL1       -0.0003
@<TRIPOS>BOND
     1    15    16    1
     2    16    17    1
     3    16     8    1
     4     8     9   ar
     5     9    10   ar
     6    10    11   ar
     7    11     1    1
     8     1     2   am
     9     2     3    2
    10     2     4    1
    11     4     5    1
    12     5    18    1
    13    18    19    1
    14    19    20   ar
    15    20    21   ar
    16    21    22   ar
    17    22    23    1
    18    22    24   ar
    19    24    25   ar
    20     5     6    1
    21     6     7    2
    22    11    12   ar
    23    12    13   ar
    24    13    14    1
    25    13     8   ar
    26     6     1    1
    27    25    19   ar
@<TRIPOS>MOLECULE
*****
 25 27 0 0 0
SMALL
GASTEIGER

@<TRIPOS>ATOM
      1 N          63.1524   88.3889   12.7184 N.am    1  UNL1       -0.2185
      2 C          63.8107   87.5944   13.8071 C.2     1  UNL1        0.2546
      3 O          63.9046   86.0988   13.8736 O.2     1  UNL1       -0.2723
      4 C          64.3587   88.5579   14.8177 C.3     1  UNL1        0.1795
      5 N          64.0391   89.9480   14.3535 N.am    1  UNL1       -0.2783
      6 C          63.2935   89.8435   13.0561 C.2     1  UNL1        0.1482
      7 S          62.7793   90.9921   12.2398 S.2     1  UNL1       -0.0177
      8 C          61.1121   86.7044    9.0784 C.ar    1  UNL1        0.0587
      9 C          61.8320   85.7904   10.0250 C.ar    1  UNL1        0.0167
     10 C          62.5121   86.3519   11.2384 C.ar    1  UNL1        0.0166
     11 C          62.4723   87.8274   11.5051 C.ar    1  UNL1        0.0607
     12 C          61.7524   88.7414   10.5584 C.ar    1  UNL1        0.0279
     13 C          61.0723   88.1799    9.3451 C.ar    1  UNL1        0.0722
     14 CL         60.3524   89.0940    8.3984 Cl      1  UNL1       -0.0809
     15 C          59.0069   86.5050    7.5691 C.3     1  UNL1        0.1123
     16 N          60.4321   86.1429    7.8650 N.pl3   1  UNL1       -0.3034
     17 C          61.1772   85.2193    6.9476 C.3     1  UNL1        0.1123
     18 C          64.4013   91.2194   15.0623 C.3     1  UNL1        0.1196
     19 C          65.8103   91.7315   15.0109 C.ar    1  UNL1       -0.0022
     20 C          66.6576   91.4756   13.7999 C.ar    1  UNL1       -0.0003
     21 C          68.0664   91.9877   13.7484 C.ar    1  UNL1        0.0294
     22 C          68.6281   92.7557   14.9080 C.ar    1  UNL1        0.1401
     23 F          70.0370   93.2678   14.8565 F       1  UNL1       -0.2042
     24 C          67.7808   93.0117   16.1190 C.ar    1  UNL1        0.0294
     25 C          66.3719   92.4995   16.1704 C.ar    1  UNL1       -0.0003
@<TRIPOS>BOND
     1    15    16    1
     2    16    17    1
     3    16     8    1
     4     8     9   ar
     5     9    10   ar
     6    10    11   ar
     7    11     1    1
     8     1     2   am
     9     2     3    2
    10     2     4    1
    11     4     5    1
    12     5    18    1
    13    18    19    1
    14    19    20   ar
    15    20    21   ar
    16    21    22   ar
    17    22    23    1
    18    22    24   ar
    19    24    25   ar
    20     5     6    1
    21     6     7    2
    22    11    12   ar
    23    12    13   ar
    24    13    14    1
    25    13     8   ar
    26     6     1    1
    27    25    19   ar
@<TRIPOS>MOLECULE
*****
 25 27 0 0 0
SMALL
GASTEIGER

@<TRIPOS>ATOM
      1 N          63.6021   90.0982   12.1754 N.am    1  UNL1       -0.2185
      2 C          63.9336   89.7774   13.6027 C.2     1  UNL1        0.2546
      3 O          63.4577   88.5801   14.3708 O.2     1  UNL1       -0.2723
      4 C          64.8246   90.8642   14.1272 C.3     1  UNL1        0.1795
      5 N          65.0437   91.8567   13.0240 N.am    1  UNL1       -0.2783
      6 C          64.2882   91.3832   11.8177 C.2     1  UNL1        0.1482
      7 S          64.2291   92.0736   10.4874 S.2     1  UNL1       -0.0177
      8 C          61.0052   87.6374    9.4458 C.ar    1  UNL1        0.0587
      9 C          61.0724   89.1262    9.2761 C.ar    1  UNL1        0.0167
     10 C          61.9380   89.9465   10.1860 C.ar    1  UNL1        0.0166
     11 C          62.7365   89.2779   11.2655 C.ar    1  UNL1        0.0607
     12 C          62.6693   87.7891   11.4352 C.ar    1  UNL1        0.0279
     13 C          61.8037   86.9688   10.5253 C.ar    1  UNL1        0.0722
     14 CL         61.7366   85.4799   10.6950 Cl      1  UNL1       -0.0809
     15 C          60.7537   85.7554    7.6724 C.3     1  UNL1        0.1123
     16 N          60.1396   86.8171    8.5359 N.pl3   1  UNL1       -0.3034
     17 C          58.6599   87.0585    8.4895 C.3     1  UNL1        0.1123
     18 C          65.8728   93.1036   13.1116 C.3     1  UNL1        0.1196
     19 C          66.4074   93.7382   11.8620 C.ar    1  UNL1       -0.0022
     20 C          67.2476   92.9355   10.9135 C.ar    1  UNL1       -0.0003
     21 C          67.7822   93.5701    9.6640 C.ar    1  UNL1        0.0294
     22 C          67.4765   95.0074    9.3628 C.ar    1  UNL1        0.1401
     23 F          68.0111   95.6420    8.1132 F       1  UNL1       -0.2042
     24 C          66.6363   95.8101   10.3113 C.ar    1  UNL1        0.0294
     25 C          66.1017   95.1755   11.5609 C.ar    1  UNL1       -0.0003
@<TRIPOS>BOND
     1    15    16    1
     2    16    17    1
     3    16     8    1
     4     8     9   ar
     5     9    10   ar
     6    10    11   ar
     7    11     1    1
     8     1     2   am
     9     2     3    2
    10     2     4    1
    11     4     5    1
    12     5    18    1
    13    18    19    1
    14    19    20   ar
    15    20    21   ar
    16    21    22   ar
    17    22    23    1
    18    22    24   ar
    19    24    25   ar
    20     5     6    1
    21     6     7    2
    22    11    12   ar
    23    12    13   ar
    24    13    14    1
    25    13     8   ar
    26     6     1    1
    27    25    19   ar
@<TRIPOS>MOLECULE
*****
 25 27 0 0 0
SMALL
GASTEIGER

@<TRIPOS>ATOM
      1 N          63.0483   90.5901   12.6214 N.am    1  UNL1       -0.2185
      2 C          62.0075   89.8861   13.4405 C.2     1  UNL1        0.2546
      3 O          62.0815   89.6117   14.9134 O.2     1  UNL1       -0.2723
      4 C          60.8795   89.5046   12.5283 C.3     1  UNL1        0.1795
      5 N          61.2233   89.9728   11.1453 N.am    1  UNL1       -0.2783
      6 C          62.5637   90.6437   11.2029 C.2     1  UNL1        0.1482
      7 S          63.2916   91.2601   10.0452 S.2     1  UNL1       -0.0177
      8 C          66.9413   92.2500   14.1511 C.ar    1  UNL1        0.0587
      9 C          66.3647   91.0068   14.7610 C.ar    1  UNL1        0.0167
     10 C          65.0671   90.4535   14.2511 C.ar    1  UNL1        0.0166
     11 C          64.3460   91.1434   13.1313 C.ar    1  UNL1        0.0607
     12 C          64.9225   92.3866   12.5214 C.ar    1  UNL1        0.0279
     13 C          66.2202   92.9399   13.0313 C.ar    1  UNL1        0.0722
     14 CL         66.7968   94.1831   12.4213 Cl      1  UNL1       -0.0809
     15 C          69.5345   92.3664   14.0442 C.3     1  UNL1        0.1123
     16 N          68.2389   92.8033   14.6610 N.pl3   1  UNL1       -0.3034
     17 C          68.2410   93.7934   15.7877 C.3     1  UNL1        0.1123
     18 C          60.3756   89.8005    9.9199 C.3     1  UNL1        0.1196
     19 C          60.4132   88.5093    9.1574 C.ar    1  UNL1       -0.0022
     20 C          61.5247   87.5304    9.3944 C.ar    1  UNL1       -0.0003
     21 C          61.5624   86.2393    8.6319 C.ar    1  UNL1        0.0294
     22 C          60.4884   85.9270    7.6324 C.ar    1  UNL1        0.1401
     23 F          60.5260   84.6357    6.8699 F       1  UNL1       -0.2042
     24 C          59.3768   86.9058    7.3954 C.ar    1  UNL1        0.0294
     25 C          59.3392   88.1970    8.1579 C.ar    1  UNL1       -0.0003
@<TRIPOS>BOND
     1    15    16    1
     2    16    17    1
     3    16     8    1
     4     8     9   ar
     5     9    10   ar
     6    10    11   ar
     7    11     1    1
     8     1     2   am
     9     2     3    2
    10     2     4    1
    11     4     5    1
    12     5    18    1
    13    18    19    1
    14    19    20   ar
    15    20    21   ar
    16    21    22   ar
    17    22    23    1
    18    22    24   ar
    19    24    25   ar
    20     5     6    1
    21     6     7    2
    22    11    12   ar
    23    12    13   ar
    24    13    14    1
    25    13     8   ar
    26     6     1    1
    27    25    19   ar
@<TRIPOS>MOLECULE
*****
 25 27 0 0 0
SMALL
GASTEIGER

@<TRIPOS>ATOM
      1 N          63.5753   90.0477   11.9187 N.am    1  UNL1       -0.2185
      2 C          63.7828   89.1164   13.0762 C.2     1  UNL1        0.2546
      3 O          64.7451   89.3186   14.2090 O.2     1  UNL1       -0.2723
      4 C          62.8590   87.9475   12.9021 C.3     1  UNL1        0.1795
      5 N          62.0806   88.1563   11.6370 N.am    1  UNL1       -0.2783
      6 C          62.5234   89.4543   11.0293 C.2     1  UNL1        0.1482
      7 S          62.0050   90.0536    9.7556 S.2     1  UNL1       -0.0177
      8 C          65.7305   93.9384   11.2349 C.ar    1  UNL1        0.0587
      9 C          64.9417   93.3125   10.1232 C.ar    1  UNL1        0.0167
     10 C          64.2233   92.0156   10.3511 C.ar    1  UNL1        0.0166
     11 C          64.2937   91.3446   11.6908 C.ar    1  UNL1        0.0607
     12 C          65.0826   91.9705   12.8025 C.ar    1  UNL1        0.0279
     13 C          65.8009   93.2674   12.5746 C.ar    1  UNL1        0.0722
     14 CL         66.5898   93.8933   13.6864 Cl      1  UNL1       -0.0809
     15 C          66.1025   96.4396   11.8314 C.3     1  UNL1        0.1123
     16 N          66.4489   95.2353   11.0070 N.pl3   1  UNL1       -0.3034
     17 C          67.5137   95.3279    9.9546 C.3     1  UNL1        0.1123
     18 C          61.0419   87.2299   11.0777 C.3     1  UNL1        0.1196
     19 C          61.2836   86.5329    9.7716 C.ar    1  UNL1       -0.0022
     20 C          60.1931   86.4665    8.7439 C.ar    1  UNL1       -0.0003
     21 C          60.4348   85.7695    7.4379 C.ar    1  UNL1        0.0294
     22 C          61.7670   85.1390    7.1596 C.ar    1  UNL1        0.1401
     23 F          62.0087   84.4420    5.8535 F       1  UNL1       -0.2042
     24 C          62.8576   85.2055    8.1873 C.ar    1  UNL1        0.0294
     25 C          62.6159   85.9024    9.4934 C.ar    1  UNL1       -0.0003
@<TRIPOS>BOND
     1    15    16    1
     2    16    17    1
     3    16     8    1
     4     8     9   ar
     5     9    10   ar
     6    10    11   ar
     7    11     1    1
     8     1     2   am
     9     2     3    2
    10     2     4    1
    11     4     5    1
    12     5    18    1
    13    18    19    1
    14    19    20   ar
    15    20    21   ar
    16    21    22   ar
    17    22    23    1
    18    22    24   ar
    19    24    25   ar
    20     5     6    1
    21     6     7    2
    22    11    12   ar
    23    12    13   ar
    24    13    14    1
    25    13     8   ar
    26     6     1    1
    27    25    19   ar
@<TRIPOS>MOLECULE
*****
 25 27 0 0 0
SMALL
GASTEIGER

@<TRIPOS>ATOM
      1 N          45.9417   75.1469   18.8934 N.am    1  UNL1       -0.2185
      2 C          47.0596   74.2814   19.3945 C.2     1  UNL1        0.2546
      3 O          48.2945   74.7573   20.1006 O.2     1  UNL1       -0.2723
      4 C          46.7259   72.8565   19.0655 C.3     1  UNL1        0.1795
      5 N          45.4017   72.8413   18.3610 N.am    1  UNL1       -0.2783
      6 C          44.9171   74.2569   18.2547 C.2     1  UNL1        0.1482
      7 S          43.6331   74.7039   17.6209 S.2     1  UNL1       -0.0177
      8 C          45.7036   79.6269   19.2445 C.ar    1  UNL1        0.0587
      9 C          45.7842   78.9838   17.8918 C.ar    1  UNL1        0.0167
     10 C          45.8636   77.4905   17.7747 C.ar    1  UNL1        0.0166
     11 C          45.8623   76.6402   19.0104 C.ar    1  UNL1        0.0607
     12 C          45.7817   77.2833   20.3632 C.ar    1  UNL1        0.0279
     13 C          45.7024   78.7766   20.4802 C.ar    1  UNL1        0.0722
     14 CL         45.6218   79.4196   21.8331 Cl      1  UNL1       -0.0809
     15 C          46.8806   81.9395   19.3723 C.3     1  UNL1        0.1123
     16 N          45.6242   81.1202   19.3616 N.pl3   1  UNL1       -0.3034
     17 C          44.2885   81.7942   19.4679 C.3     1  UNL1        0.1123
     18 C          44.6876   71.6243   17.8523 C.3     1  UNL1        0.1196
     19 C          45.0814   71.0183   16.5379 C.ar    1  UNL1       -0.0022
     20 C          46.2518   70.0831   16.4638 C.ar    1  UNL1       -0.0003
     21 C          46.6456   69.4770   15.1495 C.ar    1  UNL1        0.0294
     22 C          45.8690   69.8062   13.9091 C.ar    1  UNL1        0.1401
     23 F          46.2628   69.2001   12.5947 F       1  UNL1       -0.2042
     24 C          44.6986   70.7414   13.9832 C.ar    1  UNL1        0.0294
     25 C          44.3048   71.3474   15.2976 C.ar    1  UNL1       -0.0003
@<TRIPOS>BOND
     1    15    16    1
     2    16    17    1
     3    16     8    1
     4     8     9   ar
     5     9    10   ar
     6    10    11   ar
     7    11     1    1
     8     1     2   am
     9     2     3    2
    10     2     4    1
    11     4     5    1
    12     5    18    1
    13    18    19    1
    14    19    20   ar
    15    20    21   ar
    16    21    22   ar
    17    22    23    1
    18    22    24   ar
    19    24    25   ar
    20     5     6    1
    21     6     7    2
    22    11    12   ar
    23    12    13   ar
    24    13    14    1
    25    13     8   ar
    26     6     1    1
    27    25    19   ar
@<TRIPOS>MOLECULE
*****
 25 27 0 0 0
SMALL
GASTEIGER

@<TRIPOS>ATOM
      1 N          45.7016   74.9285   18.4946 N.am    1  UNL1       -0.2185
      2 C          46.7049   74.1124   19.2545 C.2     1  UNL1        0.2546
      3 O          47.8046   74.6506   20.1210 O.2     1  UNL1       -0.2723
      4 C          46.4153   72.6635   18.9957 C.3     1  UNL1        0.1795
      5 N          45.2331   72.5842   18.0759 N.am    1  UNL1       -0.2783
      6 C          44.7921   73.9840   17.7662 C.2     1  UNL1        0.1482
      7 S          43.6431   74.3713   16.8831 S.2     1  UNL1       -0.0177
      8 C          45.4627   79.4215   18.4141 C.ar    1  UNL1        0.0587
      9 C          44.2224   78.6083   18.6386 C.ar    1  UNL1        0.0167
     10 C          44.3020   77.1107   18.6655 C.ar    1  UNL1        0.0166
     11 C          45.6220   76.4262   18.4677 C.ar    1  UNL1        0.0607
     12 C          46.8623   77.2393   18.2432 C.ar    1  UNL1        0.0279
     13 C          46.7826   78.7369   18.2164 C.ar    1  UNL1        0.0722
     14 CL         48.0230   79.5501   17.9918 Cl      1  UNL1       -0.0809
     15 C          45.1642   81.6354   17.0877 C.3     1  UNL1        0.1123
     16 N          45.3830   80.9191   18.3873 N.pl3   1  UNL1       -0.3034
     17 C          45.5222   81.7005   19.6601 C.3     1  UNL1        0.1123
     18 C          44.6026   71.3260   17.5569 C.3     1  UNL1        0.1196
     19 C          45.0579   70.7417   16.2525 C.ar    1  UNL1       -0.0022
     20 C          44.3259   71.0734   14.9860 C.ar    1  UNL1       -0.0003
     21 C          44.7811   70.4892   13.6817 C.ar    1  UNL1        0.0294
     22 C          45.9684   69.5733   13.6438 C.ar    1  UNL1        0.1401
     23 F          46.4237   68.9890   12.3394 F       1  UNL1       -0.2042
     24 C          46.7004   69.2416   14.9104 C.ar    1  UNL1        0.0294
     25 C          46.2452   69.8259   16.2148 C.ar    1  UNL1       -0.0003
@<TRIPOS>BOND
     1    15    16    1
     2    16    17    1
     3    16     8    1
     4     8     9   ar
     5     9    10   ar
     6    10    11   ar
     7    11     1    1
     8     1     2   am
     9     2     3    2
    10     2     4    1
    11     4     5    1
    12     5    18    1
    13    18    19    1
    14    19    20   ar
    15    20    21   ar
    16    21    22   ar
    17    22    23    1
    18    22    24   ar
    19    24    25   ar
    20     5     6    1
    21     6     7    2
    22    11    12   ar
    23    12    13   ar
    24    13    14    1
    25    13     8   ar
    26     6     1    1
    27    25    19   ar
@<TRIPOS>MOLECULE
*****
 25 27 0 0 0
SMALL
GASTEIGER

@<TRIPOS>ATOM
      1 N          63.9896   90.7334   12.1094 N.am    1  UNL1       -0.2185
      2 C          63.5291   91.3216   10.8087 C.2     1  UNL1        0.2546
      3 O          64.0612   92.5689   10.1675 O.2     1  UNL1       -0.2723
      4 C          62.4429   90.4435   10.2616 C.3     1  UNL1        0.1795
      5 N          62.2321   89.3127   11.2243 N.am    1  UNL1       -0.2783
      6 C          63.1881   89.4919   12.3663 C.2     1  UNL1        0.1482
      7 S          63.3194   88.5881   13.5562 S.2     1  UNL1       -0.0177
      8 C          67.2104   92.4009   14.7732 C.ar    1  UNL1        0.0587
      9 C          67.5000   92.1281   13.3270 C.ar    1  UNL1        0.0167
     10 C          66.4263   91.5723   12.4390 C.ar    1  UNL1        0.0166
     11 C          65.0632   91.2893   12.9973 C.ar    1  UNL1        0.0607
     12 C          64.7737   91.5621   14.4436 C.ar    1  UNL1        0.0279
     13 C          65.8473   92.1179   15.3315 C.ar    1  UNL1        0.0722
     14 CL         65.5578   92.3907   16.7779 Cl      1  UNL1       -0.0809
     15 C          68.5510   94.4326   15.6815 C.3     1  UNL1        0.1123
     16 N          68.2840   92.9567   15.6612 N.pl3   1  UNL1       -0.3034
     17 C          69.0907   92.0367   16.5288 C.3     1  UNL1        0.1123
     18 C          61.2397   88.1983   11.0719 C.3     1  UNL1        0.1196
     19 C          61.3038   87.2953    9.8758 C.ar    1  UNL1       -0.0022
     20 C          62.5514   86.5119    9.5935 C.ar    1  UNL1       -0.0003
     21 C          62.6155   85.6090    8.3975 C.ar    1  UNL1        0.0294
     22 C          61.4319   85.4894    7.4838 C.ar    1  UNL1        0.1401
     23 F          61.4960   84.5864    6.2877 F       1  UNL1       -0.2042
     24 C          60.1843   86.2728    7.7661 C.ar    1  UNL1        0.0294
     25 C          60.1203   87.1758    8.9621 C.ar    1  UNL1       -0.0003
@<TRIPOS>BOND
     1    15    16    1
     2    16    17    1
     3    16     8    1
     4     8     9   ar
     5     9    10   ar
     6    10    11   ar
     7    11     1    1
     8     1     2   am
     9     2     3    2
    10     2     4    1
    11     4     5    1
    12     5    18    1
    13    18    19    1
    14    19    20   ar
    15    20    21   ar
    16    21    22   ar
    17    22    23    1
    18    22    24   ar
    19    24    25   ar
    20     5     6    1
    21     6     7    2
    22    11    12   ar
    23    12    13   ar
    24    13    14    1
    25    13     8   ar
    26     6     1    1
    27    25    19   ar
