@<TRIPOS>MOLECULE
*****
 49 55 0 0 0
SMALL
GASTEIGER

@<TRIPOS>ATOM
      1 C          59.9348   89.7962    7.0876 C.ar    1  UNL1        0.0481
      2 C          59.5300   88.3520    7.0986 C.ar    1  UNL1        0.0176
      3 C          59.5751   87.5701    8.3780 C.ar    1  UNL1        0.0382
      4 C          60.0251   88.2327    9.6463 C.ar    1  UNL1        0.1388
      5 C          60.4300   89.6770    9.6352 C.ar    1  UNL1        0.0382
      6 C          60.3849   90.4587    8.3559 C.ar    1  UNL1        0.0176
      7 N          59.7993   92.1415    3.2494 N.pl3   1  UNL1       -0.3041
      8 C          61.0901   91.5327    3.7112 C.3     1  UNL1        0.1122
      9 C          61.1353   90.7509    4.9906 C.3     1  UNL1        0.1122
     10 N          59.8897   90.5779    5.8082 N.pl3   1  UNL1       -0.3041
     11 C          58.5989   91.1868    5.3464 C.3     1  UNL1        0.1122
     12 C          58.5537   91.9685    4.0671 C.3     1  UNL1        0.1122
     13 C          59.6638   94.4868   -0.5886 C.ar    1  UNL1        0.0699
     14 C          59.8949   95.1933    0.7142 C.ar    1  UNL1        0.0190
     15 C          59.9401   94.4115    1.9935 C.ar    1  UNL1        0.0160
     16 C          59.7541   92.9233    1.9700 C.ar    1  UNL1        0.0480
     17 C          59.5230   92.2168    0.6672 C.ar    1  UNL1        0.0160
     18 C          59.4778   92.9986   -0.6121 C.ar    1  UNL1        0.0190
     19 N          60.1409   96.0883   -4.0920 N.ar    1  UNL1       -0.2024
     20 N          58.9570   96.8551   -3.5816 N.ar    1  UNL1       -0.1442
     21 C          58.6342   96.3485   -2.2071 C.ar    1  UNL1        0.2073
     22 N          59.6186   95.2686   -1.8681 N.ar    1  UNL1       -0.2398
     23 C          60.5498   95.1078   -3.0329 C.ar    1  UNL1        0.3522
     24 O          61.6897   94.1371   -3.1230 O.2     1  UNL1       -0.2444
     25 C          60.8002   96.2701   -5.4270 C.3     1  UNL1        0.1099
     26 C          60.0798   95.8691   -6.6801 C.3     1  UNL1        0.0265
     27 C          63.3751   95.9951   -5.2163 C.3     1  UNL1        0.0021
     28 C          62.1800   96.8528   -5.5090 C.3     1  UNL1        0.0245
     29 O          60.0703   87.4509   10.9257 O.3     1  UNL1       -0.4727
     30 C          61.3907   87.0474   11.5118 C.3     1  UNL1        0.2374
     31 C          62.2500   88.0676   12.1980 C.3     1  UNL1        0.1909
     32 C          62.1818   89.5532   12.0019 C.3     1  UNL1        0.1783
     33 O          63.2179   90.1852   12.8835 O.3     1  UNL1       -0.3266
     34 C          63.9263   89.0901   13.6245 C.3     1  UNL1        0.2315
     35 O          63.3281   87.7814   13.2008 O.3     1  UNL1       -0.3254
     36 C          64.7068   90.2193   14.2294 C.ar    1  UNL1        0.0410
     37 C          65.8577   90.8218   13.4796 C.ar    1  UNL1        0.0022
     38 C          66.6382   91.9510   14.0846 C.ar    1  UNL1        0.0113
     39 C          66.2677   92.4775   15.4393 C.ar    1  UNL1        0.0585
     40 CL         67.0481   93.6067   16.0442 Cl      1  UNL1       -0.0822
     41 C          65.1167   91.8750   16.1892 C.ar    1  UNL1        0.0226
     42 C          64.3362   90.7458   15.5842 C.ar    1  UNL1        0.0591
     43 CL         63.1853   90.1433   16.3341 Cl      1  UNL1       -0.0824
     44 C          64.7980   88.2312   14.4919 C.3     1  UNL1        0.1897
     45 N          64.2538   86.9630   15.0798 N.ar    1  UNL1       -0.2246
     46 C          64.6754   85.5704   14.7155 C.ar    1  UNL1        0.1974
     47 N          63.8747   84.6115   15.5458 N.ar    1  UNL1       -0.2007
     48 C          62.9583   85.4115   16.4233 C.ar    1  UNL1        0.2210
     49 N          63.1926   86.8649   16.1354 N.ar    1  UNL1       -0.1450
@<TRIPOS>BOND
     1    27    28    1
     2    28    25    1
     3    25    26    1
     4    25    19    1
     5    19    20   ar
     6    20    21   ar
     7    21    22   ar
     8    22    13    1
     9    13    14   ar
    10    14    15   ar
    11    15    16   ar
    12    16     7    1
    13     7     8    1
    14     8     9    1
    15     9    10    1
    16    10     1    1
    17     1     2   ar
    18     2     3   ar
    19     3     4   ar
    20     4    29    1
    21    29    30    1
    22    31    30    1
    23    31    32    1
    24    32    33    1
    25    33    34    1
    26    34    44    1
    27    44    45    1
    28    45    46   ar
    29    46    47   ar
    30    47    48   ar
    31    48    49   ar
    32    34    36    1
    33    36    37   ar
    34    37    38   ar
    35    38    39   ar
    36    39    40    1
    37    39    41   ar
    38    41    42   ar
    39    42    43    1
    40    34    35    1
    41     4     5   ar
    42     5     6   ar
    43    10    11    1
    44    11    12    1
    45    16    17   ar
    46    17    18   ar
    47    22    23   ar
    48    23    24    2
    49    23    19   ar
    50    18    13   ar
    51    12     7    1
    52     6     1   ar
    53    35    31    1
    54    49    45   ar
    55    42    36   ar
@<TRIPOS>MOLECULE
*****
 49 55 0 0 0
SMALL
GASTEIGER

@<TRIPOS>ATOM
      1 C          59.8915   89.7928    6.8492 C.ar    1  UNL1        0.0481
      2 C          60.3479   90.4267    8.1297 C.ar    1  UNL1        0.0176
      3 C          60.3461   89.6323    9.4022 C.ar    1  UNL1        0.0382
      4 C          59.8879   88.2040    9.3940 C.ar    1  UNL1        0.1388
      5 C          59.4316   87.5701    8.1134 C.ar    1  UNL1        0.0382
      6 C          59.4334   88.3645    6.8410 C.ar    1  UNL1        0.0176
      7 N          59.8969   92.1759    3.0320 N.pl3   1  UNL1       -0.3041
      8 C          58.6292   92.0233    3.8191 C.3     1  UNL1        0.1122
      9 C          58.6274   91.2289    5.0915 C.3     1  UNL1        0.1122
     10 N          59.8933   90.5871    5.5768 N.pl3   1  UNL1       -0.3041
     11 C          61.1611   90.7397    4.7897 C.3     1  UNL1        0.1122
     12 C          61.1629   91.5341    3.5173 C.3     1  UNL1        0.1122
     13 C          59.9025   94.5588   -0.7852 C.ar    1  UNL1        0.0699
     14 C          59.7630   93.0661   -0.8332 C.ar    1  UNL1        0.0190
     15 C          59.7612   92.2718    0.4392 C.ar    1  UNL1        0.0160
     16 C          59.8988   92.9702    1.7596 C.ar    1  UNL1        0.0480
     17 C          60.0383   94.4629    1.8075 C.ar    1  UNL1        0.0160
     18 C          60.0401   95.2572    0.5351 C.ar    1  UNL1        0.0190
     19 N          59.2342   96.2953   -4.1916 N.ar    1  UNL1       -0.2024
     20 N          60.5802   96.8560   -3.8397 N.ar    1  UNL1       -0.1442
     21 C          60.9944   96.2737   -2.5208 C.ar    1  UNL1        0.2073
     22 N          59.9043   95.3532   -2.0577 N.ar    1  UNL1       -0.2398
     23 C          58.8165   95.3666   -3.0903 C.ar    1  UNL1        0.3522
     24 O          57.5357   94.5880   -3.0319 O.2     1  UNL1       -0.2444
     25 C          58.4445   96.6085   -5.4279 C.3     1  UNL1        0.1099
     26 C          59.1368   96.7085   -6.7548 C.3     1  UNL1        0.0265
     27 C          56.0244   95.8613   -6.0063 C.3     1  UNL1        0.0021
     28 C          56.9625   96.8216   -5.3373 C.3     1  UNL1        0.0245
     29 O          59.8861   87.4097   10.6663 O.3     1  UNL1       -0.4727
     30 C          61.1838   86.9829   11.2858 C.3     1  UNL1        0.2374
     31 C          62.0274   87.9808   12.0225 C.3     1  UNL1        0.1909
     32 C          61.8802   89.4725   11.9655 C.3     1  UNL1        0.1783
     33 O          62.9280   90.0759   12.8532 O.3     1  UNL1       -0.3266
     34 C          63.7227   88.9571   13.4589 C.3     1  UNL1        0.2315
     35 O          63.1661   87.6623   12.9454 O.3     1  UNL1       -0.3254
     36 C          64.4785   90.0665   14.1282 C.ar    1  UNL1        0.0410
     37 C          65.6461   90.7034   13.4347 C.ar    1  UNL1        0.0022
     38 C          66.4019   91.8129   14.1040 C.ar    1  UNL1        0.0113
     39 C          65.9901   92.2854   15.4667 C.ar    1  UNL1        0.0585
     40 CL         66.7459   93.3948   16.1360 Cl      1  UNL1       -0.0822
     41 C          64.8225   91.6485   16.1603 C.ar    1  UNL1        0.0226
     42 C          64.0666   90.5390   15.4910 C.ar    1  UNL1        0.0591
     43 CL         62.8990   89.9020   16.1845 Cl      1  UNL1       -0.0824
     44 C          64.6754   88.0702   14.2045 C.3     1  UNL1        0.1897
     45 N          64.1745   86.8221   14.8688 N.ar    1  UNL1       -0.2246
     46 C          63.4731   86.7485   16.1925 C.ar    1  UNL1        0.1974
     47 N          63.1523   85.3094   16.4678 N.ar    1  UNL1       -0.2007
     48 C          63.6554   84.4934   15.3141 C.ar    1  UNL1        0.2210
     49 N          64.2873   85.4283   14.3258 N.ar    1  UNL1       -0.1450
@<TRIPOS>BOND
     1    27    28    1
     2    28    25    1
     3    25    26    1
     4    25    19    1
     5    19    20   ar
     6    20    21   ar
     7    21    22   ar
     8    22    13    1
     9    13    14   ar
    10    14    15   ar
    11    15    16   ar
    12    16     7    1
    13     7     8    1
    14     8     9    1
    15     9    10    1
    16    10     1    1
    17     1     2   ar
    18     2     3   ar
    19     3     4   ar
    20     4    29    1
    21    29    30    1
    22    31    30    1
    23    31    32    1
    24    32    33    1
    25    33    34    1
    26    34    44    1
    27    44    45    1
    28    45    46   ar
    29    46    47   ar
    30    47    48   ar
    31    48    49   ar
    32    34    36    1
    33    36    37   ar
    34    37    38   ar
    35    38    39   ar
    36    39    40    1
    37    39    41   ar
    38    41    42   ar
    39    42    43    1
    40    34    35    1
    41     4     5   ar
    42     5     6   ar
    43    10    11    1
    44    11    12    1
    45    16    17   ar
    46    17    18   ar
    47    22    23   ar
    48    23    24    2
    49    23    19   ar
    50    18    13   ar
    51    12     7    1
    52     6     1   ar
    53    35    31    1
    54    49    45   ar
    55    42    36   ar
@<TRIPOS>MOLECULE
*****
 49 55 0 0 0
SMALL
GASTEIGER

@<TRIPOS>ATOM
      1 C          59.9862   89.8457    6.9252 C.ar    1  UNL1        0.0481
      2 C          59.3869   88.4727    7.0011 C.ar    1  UNL1        0.0176
      3 C          59.4786   87.6836    8.2735 C.ar    1  UNL1        0.0382
      4 C          60.1695   88.2676    9.4700 C.ar    1  UNL1        0.1388
      5 C          60.7688   89.6406    9.3941 C.ar    1  UNL1        0.0382
      6 C          60.6771   90.4296    8.1217 C.ar    1  UNL1        0.0176
      7 N          59.7111   92.2128    3.1080 N.pl3   1  UNL1       -0.3041
      8 C          61.0295   91.6477    3.5467 C.3     1  UNL1        0.1122
      9 C          61.1212   90.8586    4.8191 C.3     1  UNL1        0.1122
     10 N          59.8945   90.6347    5.6528 N.pl3   1  UNL1       -0.3041
     11 C          58.5761   91.1998    5.2141 C.3     1  UNL1        0.1122
     12 C          58.4844   91.9889    3.9417 C.3     1  UNL1        0.1122
     13 C          59.4358   94.5798   -0.7092 C.ar    1  UNL1        0.0699
     14 C          59.0808   93.1225   -0.7032 C.ar    1  UNL1        0.0190
     15 C          59.1725   92.3335    0.5692 C.ar    1  UNL1        0.0160
     16 C          59.6193   93.0018    1.8356 C.ar    1  UNL1        0.0480
     17 C          59.9744   94.4591    1.8295 C.ar    1  UNL1        0.0160
     18 C          59.8827   95.2481    0.5571 C.ar    1  UNL1        0.0190
     19 N          58.5147   96.3102   -4.0593 N.ar    1  UNL1       -0.2024
     20 N          59.8913   96.8560   -3.8201 N.ar    1  UNL1       -0.1442
     21 C          60.4039   96.2742   -2.5360 C.ar    1  UNL1        0.2073
     22 N          59.3441   95.3688   -1.9817 N.ar    1  UNL1       -0.2398
     23 C          58.1766   95.3911   -2.9231 C.ar    1  UNL1        0.3522
     24 O          56.8957   94.6282   -2.7575 O.2     1  UNL1       -0.2444
     25 C          57.6314   96.6277   -5.2293 C.3     1  UNL1        0.1099
     26 C          58.2159   96.7170   -6.6079 C.3     1  UNL1        0.0265
     27 C          55.1620   96.0365   -5.7790 C.3     1  UNL1        0.0021
     28 C          56.1636   96.8560   -5.0208 C.3     1  UNL1        0.0245
     29 O          60.2612   87.4786   10.7424 O.3     1  UNL1       -0.4727
     30 C          60.2210   88.1829   12.0661 C.3     1  UNL1        0.2374
     31 C          61.3349   89.1081   12.4576 C.3     1  UNL1        0.1909
     32 C          61.3960   90.5811   12.1807 C.3     1  UNL1        0.1783
     33 O          62.6820   91.1062   12.7466 O.3     1  UNL1       -0.3266
     34 C          63.4158   89.9577   13.3733 C.3     1  UNL1        0.2315
     35 O          62.5832   88.7229   13.1947 O.3     1  UNL1       -0.3254
     36 C          64.4468   90.9980   13.6970 C.ar    1  UNL1        0.0410
     37 C          64.8897   91.1988   15.1160 C.ar    1  UNL1        0.0022
     38 C          65.9208   92.2391   15.4399 C.ar    1  UNL1        0.0113
     39 C          66.5089   93.0785   14.3447 C.ar    1  UNL1        0.0585
     40 CL         67.5399   94.1187   14.6685 Cl      1  UNL1       -0.0822
     41 C          66.0661   92.8777   12.9257 C.ar    1  UNL1        0.0226
     42 C          65.0350   91.8374   12.6018 C.ar    1  UNL1        0.0591
     43 CL         64.5921   91.6366   11.1829 Cl      1  UNL1       -0.0824
     44 C          64.3651   89.0268   14.0676 C.3     1  UNL1        0.1897
     45 N          63.8687   88.1273   15.1606 N.ar    1  UNL1       -0.2246
     46 C          63.1404   88.5620   16.3977 C.ar    1  UNL1        0.1974
     47 N          62.8351   87.3386   17.2099 N.ar    1  UNL1       -0.2007
     48 C          63.3746   86.1476   16.4748 C.ar    1  UNL1        0.2210
     49 N          64.0135   86.6350   15.2082 N.ar    1  UNL1       -0.1450
@<TRIPOS>BOND
     1    27    28    1
     2    28    25    1
     3    25    26    1
     4    25    19    1
     5    19    20   ar
     6    20    21   ar
     7    21    22   ar
     8    22    13    1
     9    13    14   ar
    10    14    15   ar
    11    15    16   ar
    12    16     7    1
    13     7     8    1
    14     8     9    1
    15     9    10    1
    16    10     1    1
    17     1     2   ar
    18     2     3   ar
    19     3     4   ar
    20     4    29    1
    21    29    30    1
    22    31    30    1
    23    31    32    1
    24    32    33    1
    25    33    34    1
    26    34    44    1
    27    44    45    1
    28    45    46   ar
    29    46    47   ar
    30    47    48   ar
    31    48    49   ar
    32    34    36    1
    33    36    37   ar
    34    37    38   ar
    35    38    39   ar
    36    39    40    1
    37    39    41   ar
    38    41    42   ar
    39    42    43    1
    40    34    35    1
    41     4     5   ar
    42     5     6   ar
    43    10    11    1
    44    11    12    1
    45    16    17   ar
    46    17    18   ar
    47    22    23   ar
    48    23    24    2
    49    23    19   ar
    50    18    13   ar
    51    12     7    1
    52     6     1   ar
    53    35    31    1
    54    49    45   ar
    55    42    36   ar
@<TRIPOS>MOLECULE
*****
 49 55 0 0 0
SMALL
GASTEIGER

@<TRIPOS>ATOM
      1 C          60.4211   90.3185    6.1487 C.ar    1  UNL1        0.0481
      2 C          61.2319   90.5956    7.3799 C.ar    1  UNL1        0.0176
      3 C          60.9042   89.8976    8.6665 C.ar    1  UNL1        0.0382
      4 C          59.7657   88.9225    8.7219 C.ar    1  UNL1        0.1388
      5 C          58.9550   88.6453    7.4907 C.ar    1  UNL1        0.0382
      6 C          59.2827   89.3434    6.2041 C.ar    1  UNL1        0.0176
      7 N          61.4042   92.4126    2.2889 N.pl3   1  UNL1       -0.3041
      8 C          62.4159   91.5108    2.9317 C.3     1  UNL1        0.1122
      9 C          62.0883   90.8128    4.2183 C.3     1  UNL1        0.1122
     10 N          60.7488   91.0165    4.8621 N.pl3   1  UNL1       -0.3041
     11 C          59.7371   91.9183    4.2192 C.3     1  UNL1        0.1122
     12 C          60.0648   92.6163    2.9326 C.3     1  UNL1        0.1122
     13 C          62.3873   94.5067   -1.5709 C.ar    1  UNL1        0.0699
     14 C          63.4383   94.3541   -0.5117 C.ar    1  UNL1        0.0190
     15 C          63.1106   93.6561    0.7749 C.ar    1  UNL1        0.0160
     16 C          61.7319   93.1106    1.0022 C.ar    1  UNL1        0.0480
     17 C          60.6809   93.2632   -0.0571 C.ar    1  UNL1        0.0160
     18 C          61.0086   93.9613   -1.3436 C.ar    1  UNL1        0.0190
     19 N          63.6543   95.7025   -5.0394 N.ar    1  UNL1       -0.2024
     20 N          62.7840   96.8555   -4.6355 N.ar    1  UNL1       -0.1442
     21 C          62.2035   96.5479   -3.2870 C.ar    1  UNL1        0.2073
     22 N          62.7150   95.2048   -2.8576 N.ar    1  UNL1       -0.2398
     23 C          63.6116   94.6823   -3.9406 C.ar    1  UNL1        0.3522
     24 O          64.3381   93.3700   -3.9273 O.2     1  UNL1       -0.2444
     25 C          64.4309   95.5895   -6.3178 C.3     1  UNL1        0.1099
     26 C          64.2805   94.3725   -7.1817 C.3     1  UNL1        0.0265
     27 C          66.8260   96.5883   -6.4431 C.3     1  UNL1        0.0021
     28 C          65.3580   96.6934   -6.7322 C.3     1  UNL1        0.0245
     29 O          59.4380   88.2245   10.0085 O.3     1  UNL1       -0.4727
     30 C          60.5301   87.5863   10.8148 C.3     1  UNL1        0.2374
     31 C          61.4312   88.4354   11.6617 C.3     1  UNL1        0.1909
     32 C          61.2448   89.8937   11.9596 C.3     1  UNL1        0.1783
     33 O          62.3751   90.3349   12.8414 O.3     1  UNL1       -0.3266
     34 C          63.2602   89.1492   13.0885 C.3     1  UNL1        0.2315
     35 O          62.6767   87.9753   12.3595 O.3     1  UNL1       -0.3254
     36 C          64.0637   90.1176   13.9049 C.ar    1  UNL1        0.0410
     37 C          65.2199   90.8437   13.2837 C.ar    1  UNL1        0.0022
     38 C          66.0235   91.8121   14.1001 C.ar    1  UNL1        0.0113
     39 C          65.6708   92.0545   15.5376 C.ar    1  UNL1        0.0585
     40 CL         66.4744   93.0229   16.3541 Cl      1  UNL1       -0.0822
     41 C          64.5146   91.3285   16.1590 C.ar    1  UNL1        0.0226
     42 C          63.7110   90.3600   15.3426 C.ar    1  UNL1        0.0591
     43 CL         62.5548   89.6340   15.9639 Cl      1  UNL1       -0.0824
     44 C          64.3132   88.1661   13.5063 C.3     1  UNL1        0.1897
     45 N          63.9191   86.8899   14.1891 N.ar    1  UNL1       -0.2246
     46 C          63.6543   86.7199   15.6556 C.ar    1  UNL1        0.1974
     47 N          63.2923   85.2846   15.8980 N.ar    1  UNL1       -0.2007
     48 C          63.3334   84.5675   14.5812 C.ar    1  UNL1        0.2210
     49 N          63.7208   85.5596   13.5250 N.ar    1  UNL1       -0.1450
@<TRIPOS>BOND
     1    27    28    1
     2    28    25    1
     3    25    26    1
     4    25    19    1
     5    19    20   ar
     6    20    21   ar
     7    21    22   ar
     8    22    13    1
     9    13    14   ar
    10    14    15   ar
    11    15    16   ar
    12    16     7    1
    13     7     8    1
    14     8     9    1
    15     9    10    1
    16    10     1    1
    17     1     2   ar
    18     2     3   ar
    19     3     4   ar
    20     4    29    1
    21    29    30    1
    22    31    30    1
    23    31    32    1
    24    32    33    1
    25    33    34    1
    26    34    44    1
    27    44    45    1
    28    45    46   ar
    29    46    47   ar
    30    47    48   ar
    31    48    49   ar
    32    34    36    1
    33    36    37   ar
    34    37    38   ar
    35    38    39   ar
    36    39    40    1
    37    39    41   ar
    38    41    42   ar
    39    42    43    1
    40    34    35    1
    41     4     5   ar
    42     5     6   ar
    43    10    11    1
    44    11    12    1
    45    16    17   ar
    46    17    18   ar
    47    22    23   ar
    48    23    24    2
    49    23    19   ar
    50    18    13   ar
    51    12     7    1
    52     6     1   ar
    53    35    31    1
    54    49    45   ar
    55    42    36   ar
@<TRIPOS>MOLECULE
*****
 49 55 0 0 0
SMALL
GASTEIGER

@<TRIPOS>ATOM
      1 C          59.4384   93.2789    1.9364 C.ar    1  UNL1        0.0481
      2 C          58.6616   92.7460    0.7692 C.ar    1  UNL1        0.0176
      3 C          58.4218   93.6132   -0.4310 C.ar    1  UNL1        0.0382
      4 C          58.9588   95.0134   -0.4639 C.ar    1  UNL1        0.1388
      5 C          59.7357   95.5463    0.7034 C.ar    1  UNL1        0.0382
      6 C          59.9755   94.6791    1.9035 C.ar    1  UNL1        0.0176
      7 N          60.1577   90.6771    5.5368 N.pl3   1  UNL1       -0.3041
      8 C          58.7708   91.1524    5.2201 C.3     1  UNL1        0.1122
      9 C          58.5310   92.0197    4.0199 C.3     1  UNL1        0.1122
     10 N          59.6782   92.4116    3.1365 N.pl3   1  UNL1       -0.3041
     11 C          61.0652   91.9362    3.4533 C.3     1  UNL1        0.1122
     12 C          61.3049   91.0690    4.6534 C.3     1  UNL1        0.1122
     13 C          60.8771   88.0752    9.1372 C.ar    1  UNL1        0.0699
     14 C          59.9991   87.5877    8.0230 C.ar    1  UNL1        0.0190
     15 C          59.7593   88.4550    6.8229 C.ar    1  UNL1        0.0160
     16 C          60.3976   89.8098    6.7370 C.ar    1  UNL1        0.0480
     17 C          61.2756   90.2972    7.8512 C.ar    1  UNL1        0.0160
     18 C          61.5154   89.4299    9.0512 C.ar    1  UNL1        0.0190
     19 N          61.9579   85.4497   11.7837 N.ar    1  UNL1       -0.2024
     20 N          61.0140   86.2969   12.5846 N.ar    1  UNL1       -0.1442
     21 C          60.4943   87.3835   11.6907 C.ar    1  UNL1        0.2073
     22 N          61.1170   87.2079   10.3373 N.ar    1  UNL1       -0.2398
     23 C          62.0215   86.0127   10.3949 C.ar    1  UNL1        0.3522
     24 O          62.8450   85.4748    9.2624 O.2     1  UNL1       -0.2444
     25 C          62.7067   84.2500   12.2840 C.3     1  UNL1        0.1099
     26 C          63.7000   84.3969   13.3982 C.3     1  UNL1        0.0265
     27 C          63.5799   81.9078   11.5757 C.3     1  UNL1        0.0021
     28 C          62.4621   82.9035   11.6699 C.3     1  UNL1        0.0245
     29 O          58.7191   95.8807   -1.6640 O.3     1  UNL1       -0.4727
     30 C          59.7701   96.8546   -2.1075 C.3     1  UNL1        0.2374
     31 C          60.9133   96.3882   -2.9593 C.3     1  UNL1        0.1909
     32 C          60.8484   96.0666   -4.4230 C.3     1  UNL1        0.1783
     33 O          62.2171   95.6411   -4.8652 O.3     1  UNL1       -0.3266
     34 C          63.1280   95.6997   -3.6748 C.3     1  UNL1        0.2315
     35 O          62.3222   96.1615   -2.4969 O.3     1  UNL1       -0.3254
     36 C          64.1697   95.2297   -4.6463 C.ar    1  UNL1        0.0410
     37 C          65.0533   96.2249   -5.3383 C.ar    1  UNL1        0.0022
     38 C          66.0951   95.7550   -6.3099 C.ar    1  UNL1        0.0113
     39 C          66.2532   94.2898   -6.5894 C.ar    1  UNL1        0.0585
     40 CL         67.2949   93.8198   -7.5610 Cl      1  UNL1       -0.0822
     41 C          65.3696   93.2945   -5.8976 C.ar    1  UNL1        0.0226
     42 C          64.3278   93.7645   -4.9260 C.ar    1  UNL1        0.0591
     43 CL         63.4442   92.7693   -4.2340 Cl      1  UNL1       -0.0824
     44 C          64.2566   95.6601   -2.6875 C.3     1  UNL1        0.1897
     45 N          64.0314   95.1036   -1.3129 N.ar    1  UNL1       -0.2246
     46 C          64.3885   95.7754   -0.0203 C.ar    1  UNL1        0.1974
     47 N          63.9875   94.8645    1.1019 N.ar    1  UNL1       -0.2007
     48 C          63.3825   93.6296    0.5027 C.ar    1  UNL1        0.2210
     49 N          63.4096   93.7773   -0.9897 N.ar    1  UNL1       -0.1450
@<TRIPOS>BOND
     1    27    28    1
     2    28    25    1
     3    25    26    1
     4    25    19    1
     5    19    20   ar
     6    20    21   ar
     7    21    22   ar
     8    22    13    1
     9    13    14   ar
    10    14    15   ar
    11    15    16   ar
    12    16     7    1
    13     7     8    1
    14     8     9    1
    15     9    10    1
    16    10     1    1
    17     1     2   ar
    18     2     3   ar
    19     3     4   ar
    20     4    29    1
    21    29    30    1
    22    31    30    1
    23    31    32    1
    24    32    33    1
    25    33    34    1
    26    34    44    1
    27    44    45    1
    28    45    46   ar
    29    46    47   ar
    30    47    48   ar
    31    48    49   ar
    32    34    36    1
    33    36    37   ar
    34    37    38   ar
    35    38    39   ar
    36    39    40    1
    37    39    41   ar
    38    41    42   ar
    39    42    43    1
    40    34    35    1
    41     4     5   ar
    42     5     6   ar
    43    10    11    1
    44    11    12    1
    45    16    17   ar
    46    17    18   ar
    47    22    23   ar
    48    23    24    2
    49    23    19   ar
    50    18    13   ar
    51    12     7    1
    52     6     1   ar
    53    35    31    1
    54    49    45   ar
    55    42    36   ar
@<TRIPOS>MOLECULE
*****
 49 55 0 0 0
SMALL
GASTEIGER

@<TRIPOS>ATOM
      1 C          60.1135   90.0888    6.4166 C.ar    1  UNL1        0.0481
      2 C          59.1299   88.9605    6.5129 C.ar    1  UNL1        0.0176
      3 C          58.9653   88.2173    7.8054 C.ar    1  UNL1        0.0382
      4 C          59.7843   88.6024    9.0016 C.ar    1  UNL1        0.1388
      5 C          60.7680   89.7308    8.9052 C.ar    1  UNL1        0.0382
      6 C          60.9326   90.4740    7.6127 C.ar    1  UNL1        0.0176
      7 N          60.6071   92.3185    2.5391 N.pl3   1  UNL1       -0.3041
      8 C          61.7899   91.6518    3.1767 C.3     1  UNL1        0.1122
      9 C          61.6254   90.9086    4.4692 C.3     1  UNL1        0.1122
     10 N          60.2780   90.8320    5.1241 N.pl3   1  UNL1       -0.3041
     11 C          59.0952   91.4987    4.4864 C.3     1  UNL1        0.1122
     12 C          59.2598   92.2419    3.1940 C.3     1  UNL1        0.1122
     13 C          61.1006   94.5481   -1.3384 C.ar    1  UNL1        0.0699
     14 C          61.1301   93.0484   -1.3266 C.ar    1  UNL1        0.0190
     15 C          60.9656   92.3053   -0.0341 C.ar    1  UNL1        0.0160
     16 C          60.7716   93.0617    1.2465 C.ar    1  UNL1        0.0480
     17 C          60.7422   94.5614    1.2347 C.ar    1  UNL1        0.0160
     18 C          60.9067   95.3045   -0.0578 C.ar    1  UNL1        0.0190
     19 N          60.9564   96.0387   -4.9194 N.ar    1  UNL1       -0.2024
     20 N          62.0803   96.8314   -4.3205 N.ar    1  UNL1       -0.1442
     21 C          62.2711   96.3695   -2.9062 C.ar    1  UNL1        0.2073
     22 N          61.2652   95.2913   -2.6310 N.ar    1  UNL1       -0.2398
     23 C          60.4527   95.0869   -3.8752 C.ar    1  UNL1        0.3522
     24 O          59.3331   94.1033   -4.0454 O.2     1  UNL1       -0.2444
     25 C          60.4290   96.1740   -6.3170 C.3     1  UNL1        0.1099
     26 C          61.2159   95.6287   -7.4717 C.3     1  UNL1        0.0265
     27 C          57.9523   96.5880   -5.6503 C.3     1  UNL1        0.0021
     28 C          59.1146   96.8547   -6.5600 C.3     1  UNL1        0.0245
     29 O          59.6198   87.8592   10.2941 O.3     1  UNL1       -0.4727
     30 C          59.5485   88.6131   11.5888 C.3     1  UNL1        0.2374
     31 C          60.7399   89.3847   12.0740 C.3     1  UNL1        0.1909
     32 C          60.7601   90.8405   12.4351 C.3     1  UNL1        0.1783
     33 O          62.1529   91.1915   12.8676 O.3     1  UNL1       -0.3266
     34 C          62.9934   89.9526   12.7738 C.3     1  UNL1        0.2315
     35 O          62.1201   88.8360   12.2834 O.3     1  UNL1       -0.3254
     36 C          64.0903   90.8495   13.2661 C.ar    1  UNL1        0.0410
     37 C          64.4474   90.8674   14.7228 C.ar    1  UNL1        0.0022
     38 C          65.5443   91.7643   15.2153 C.ar    1  UNL1        0.0113
     39 C          66.2841   92.6432   14.2509 C.ar    1  UNL1        0.0585
     40 CL         67.3810   93.5401   14.7432 Cl      1  UNL1       -0.0822
     41 C          65.9271   92.6254   12.7941 C.ar    1  UNL1        0.0226
     42 C          64.8302   91.7284   12.3017 C.ar    1  UNL1        0.0591
     43 CL         64.4731   91.7105   10.8449 Cl      1  UNL1       -0.0824
     44 C          64.0633   88.9013   12.7829 C.3     1  UNL1        0.1897
     45 N          63.9164   87.6893   13.6544 N.ar    1  UNL1       -0.2246
     46 C          64.2563   87.6055   15.1129 C.ar    1  UNL1        0.1974
     47 N          63.9538   86.2127   15.5802 N.ar    1  UNL1       -0.2007
     48 C          63.4268   85.4356   14.4104 C.ar    1  UNL1        0.2210
     49 N          63.4037   86.3481   13.2202 N.ar    1  UNL1       -0.1450
@<TRIPOS>BOND
     1    27    28    1
     2    28    25    1
     3    25    26    1
     4    25    19    1
     5    19    20   ar
     6    20    21   ar
     7    21    22   ar
     8    22    13    1
     9    13    14   ar
    10    14    15   ar
    11    15    16   ar
    12    16     7    1
    13     7     8    1
    14     8     9    1
    15     9    10    1
    16    10     1    1
    17     1     2   ar
    18     2     3   ar
    19     3     4   ar
    20     4    29    1
    21    29    30    1
    22    31    30    1
    23    31    32    1
    24    32    33    1
    25    33    34    1
    26    34    44    1
    27    44    45    1
    28    45    46   ar
    29    46    47   ar
    30    47    48   ar
    31    48    49   ar
    32    34    36    1
    33    36    37   ar
    34    37    38   ar
    35    38    39   ar
    36    39    40    1
    37    39    41   ar
    38    41    42   ar
    39    42    43    1
    40    34    35    1
    41     4     5   ar
    42     5     6   ar
    43    10    11    1
    44    11    12    1
    45    16    17   ar
    46    17    18   ar
    47    22    23   ar
    48    23    24    2
    49    23    19   ar
    50    18    13   ar
    51    12     7    1
    52     6     1   ar
    53    35    31    1
    54    49    45   ar
    55    42    36   ar
@<TRIPOS>MOLECULE
*****
 49 55 0 0 0
SMALL
GASTEIGER

@<TRIPOS>ATOM
      1 C          60.4244   90.4175    6.9052 C.ar    1  UNL1        0.0481
      2 C          61.4724   90.9358    7.8448 C.ar    1  UNL1        0.0176
      3 C          61.6338   90.3187    9.2025 C.ar    1  UNL1        0.0382
      4 C          60.7471   89.1833    9.6204 C.ar    1  UNL1        0.1388
      5 C          59.6992   88.6649    8.6806 C.ar    1  UNL1        0.0382
      6 C          59.5378   89.2820    7.3231 C.ar    1  UNL1        0.0176
      7 N          59.9405   92.2688    2.8323 N.pl3   1  UNL1       -0.3041
      8 C          58.7544   92.1338    3.7405 C.3     1  UNL1        0.1122
      9 C          58.9157   91.5167    5.0981 C.3     1  UNL1        0.1122
     10 N          60.2631   91.0346    5.5476 N.pl3   1  UNL1       -0.3041
     11 C          61.4493   91.1696    4.6393 C.3     1  UNL1        0.1122
     12 C          61.2880   91.7867    3.2817 C.3     1  UNL1        0.1122
     13 C          59.4567   94.1201   -1.2406 C.ar    1  UNL1        0.0699
     14 C          59.5372   92.6289   -1.0994 C.ar    1  UNL1        0.0190
     15 C          59.6985   92.0119    0.2583 C.ar    1  UNL1        0.0160
     16 C          59.7792   92.8860    1.4746 C.ar    1  UNL1        0.0480
     17 C          59.6986   94.3771    1.3333 C.ar    1  UNL1        0.0160
     18 C          59.5374   94.9941   -0.0243 C.ar    1  UNL1        0.0190
     19 N          58.3837   95.3457   -4.7637 N.ar    1  UNL1       -0.2024
     20 N          59.7108   96.0280   -4.6112 N.ar    1  UNL1       -0.1442
     21 C          60.2743   95.6519   -3.2729 C.ar    1  UNL1        0.2073
     22 N          59.2954   94.7372   -2.5983 N.ar    1  UNL1       -0.2398
     23 C          58.1269   94.5480   -3.5197 C.ar    1  UNL1        0.3522
     24 O          56.9146   93.7084   -3.2452 O.2     1  UNL1       -0.2444
     25 C          57.4731   95.4439   -5.9517 C.3     1  UNL1        0.1099
     26 C          56.7943   96.7428   -6.2710 C.3     1  UNL1        0.0265
     27 C          55.9419   93.4987   -6.7399 C.3     1  UNL1        0.0021
     28 C          57.2415   94.2433   -6.8205 C.3     1  UNL1        0.0245
     29 O          60.9085   88.5662   10.9780 O.3     1  UNL1       -0.4727
     30 C          62.2058   87.9153   11.3566 C.3     1  UNL1        0.2374
     31 C          62.2528   86.4418   11.6337 C.3     1  UNL1        0.1909
     32 C          61.6108   85.3681   10.8061 C.3     1  UNL1        0.1783
     33 O          61.9113   84.0461   11.4479 O.3     1  UNL1       -0.3266
     34 C          62.7391   84.3027   12.6722 C.3     1  UNL1        0.2315
     35 O          62.9502   85.7834   12.7870 O.3     1  UNL1       -0.3254
     36 C          62.6994   82.8106   12.8197 C.ar    1  UNL1        0.0410
     37 C          61.9286   82.1886   13.9462 C.ar    1  UNL1        0.0022
     38 C          61.8888   80.6963   14.0938 C.ar    1  UNL1        0.0113
     39 C          62.6198   79.8262   13.1149 C.ar    1  UNL1        0.0585
     40 CL         62.5800   78.3340   13.2625 Cl      1  UNL1       -0.0822
     41 C          63.3906   80.4481   11.9884 C.ar    1  UNL1        0.0226
     42 C          63.4304   81.9403   11.8408 C.ar    1  UNL1        0.0591
     43 CL         64.2012   82.5623   10.7143 Cl      1  UNL1       -0.0824
     44 C          63.5586   84.2474   13.9273 C.3     1  UNL1        0.1897
     45 N          63.1741   85.0838   15.1116 N.ar    1  UNL1       -0.2246
     46 C          62.0373   84.8114   16.0515 C.ar    1  UNL1        0.1974
     47 N          62.0194   85.8986   17.0847 N.ar    1  UNL1       -0.2007
     48 C          63.1452   86.8430   16.7834 C.ar    1  UNL1        0.2210
     49 N          63.8588   86.3394   15.5639 N.ar    1  UNL1       -0.1450
@<TRIPOS>BOND
     1    27    28    1
     2    28    25    1
     3    25    26    1
     4    25    19    1
     5    19    20   ar
     6    20    21   ar
     7    21    22   ar
     8    22    13    1
     9    13    14   ar
    10    14    15   ar
    11    15    16   ar
    12    16     7    1
    13     7     8    1
    14     8     9    1
    15     9    10    1
    16    10     1    1
    17     1     2   ar
    18     2     3   ar
    19     3     4   ar
    20     4    29    1
    21    29    30    1
    22    31    30    1
    23    31    32    1
    24    32    33    1
    25    33    34    1
    26    34    44    1
    27    44    45    1
    28    45    46   ar
    29    46    47   ar
    30    47    48   ar
    31    48    49   ar
    32    34    36    1
    33    36    37   ar
    34    37    38   ar
    35    38    39   ar
    36    39    40    1
    37    39    41   ar
    38    41    42   ar
    39    42    43    1
    40    34    35    1
    41     4     5   ar
    42     5     6   ar
    43    10    11    1
    44    11    12    1
    45    16    17   ar
    46    17    18   ar
    47    22    23   ar
    48    23    24    2
    49    23    19   ar
    50    18    13   ar
    51    12     7    1
    52     6     1   ar
    53    35    31    1
    54    49    45   ar
    55    42    36   ar
@<TRIPOS>MOLECULE
*****
 49 55 0 0 0
SMALL
GASTEIGER

@<TRIPOS>ATOM
      1 C          60.5019   90.4500    6.7958 C.ar    1  UNL1        0.0481
      2 C          61.5281   90.9504    7.7686 C.ar    1  UNL1        0.0176
      3 C          61.6475   90.3190    9.1240 C.ar    1  UNL1        0.0382
      4 C          60.7405   89.1871    9.5066 C.ar    1  UNL1        0.1388
      5 C          59.7142   88.6867    8.5337 C.ar    1  UNL1        0.0382
      6 C          59.5949   89.3182    7.1783 C.ar    1  UNL1        0.0176
      7 N          60.1441   92.3444    2.7297 N.pl3   1  UNL1       -0.3041
      8 C          58.9403   92.2441    3.6189 C.3     1  UNL1        0.1122
      9 C          59.0595   91.6126    4.9743 C.3     1  UNL1        0.1122
     10 N          60.3826   91.0815    5.4405 N.pl3   1  UNL1       -0.3041
     11 C          61.5865   91.1818    4.5512 C.3     1  UNL1        0.1122
     12 C          61.4672   91.8133    3.1958 C.3     1  UNL1        0.1122
     13 C          59.7865   94.2388   -1.3364 C.ar    1  UNL1        0.0699
     14 C          61.0510   94.3951   -0.5448 C.ar    1  UNL1        0.0190
     15 C          61.1702   93.7636    0.8105 C.ar    1  UNL1        0.0160
     16 C          60.0249   92.9759    1.3743 C.ar    1  UNL1        0.0480
     17 C          58.7604   92.8197    0.5827 C.ar    1  UNL1        0.0160
     18 C          58.6412   93.4512   -0.7726 C.ar    1  UNL1        0.0190
     19 N          60.1012   95.4796   -5.0007 N.ar    1  UNL1       -0.2024
     20 N          58.8662   96.2046   -4.5543 N.ar    1  UNL1       -0.1442
     21 C          58.5981   95.8280   -3.1273 C.ar    1  UNL1        0.2073
     22 N          59.6673   94.8703   -2.6918 N.ar    1  UNL1       -0.2398
     23 C          60.5962   94.6550   -3.8497 C.ar    1  UNL1        0.3522
     24 O          61.8076   93.7704   -3.8554 O.2     1  UNL1       -0.2444
     25 C          60.7306   95.5643   -6.3597 C.3     1  UNL1        0.1099
     26 C          60.2218   94.7025   -7.4769 C.3     1  UNL1        0.0265
     27 C          62.8078   96.8557   -5.4837 C.3     1  UNL1        0.0021
     28 C          61.8689   96.5109   -6.6013 C.3     1  UNL1        0.0245
     29 O          60.8598   88.5557   10.8619 O.3     1  UNL1       -0.4727
     30 C          62.1520   87.9205   11.2822 C.3     1  UNL1        0.2374
     31 C          62.2047   86.4503   11.5750 C.3     1  UNL1        0.1909
     32 C          61.5375   85.3682   10.7787 C.3     1  UNL1        0.1783
     33 O          61.8543   84.0532   11.4270 O.3     1  UNL1       -0.3266
     34 C          62.7174   84.3225   12.6240 C.3     1  UNL1        0.2315
     35 O          62.9339   85.8040   12.7154 O.3     1  UNL1       -0.3254
     36 C          62.6796   82.8322   12.7900 C.ar    1  UNL1        0.0410
     37 C          61.9442   82.2250   13.9477 C.ar    1  UNL1        0.0022
     38 C          61.9064   80.7346   14.1138 C.ar    1  UNL1        0.0113
     39 C          62.6039   79.8516   13.1221 C.ar    1  UNL1        0.0585
     40 CL         62.5661   78.3613   13.2881 Cl      1  UNL1       -0.0822
     41 C          63.3393   80.4587   11.9642 C.ar    1  UNL1        0.0226
     42 C          63.3771   81.9491   11.7982 C.ar    1  UNL1        0.0591
     43 CL         64.1125   82.5564   10.6404 Cl      1  UNL1       -0.0824
     44 C          63.5725   84.2802   13.8556 C.3     1  UNL1        0.1897
     45 N          63.1955   85.0930   15.0586 N.ar    1  UNL1       -0.2246
     46 C          62.0673   84.7999   16.0025 C.ar    1  UNL1        0.1974
     47 N          62.0551   85.8673   17.0562 N.ar    1  UNL1       -0.2007
     48 C          63.1760   86.8203   16.7636 C.ar    1  UNL1        0.2210
     49 N          63.8808   86.3417   15.5290 N.ar    1  UNL1       -0.1450
@<TRIPOS>BOND
     1    27    28    1
     2    28    25    1
     3    25    26    1
     4    25    19    1
     5    19    20   ar
     6    20    21   ar
     7    21    22   ar
     8    22    13    1
     9    13    14   ar
    10    14    15   ar
    11    15    16   ar
    12    16     7    1
    13     7     8    1
    14     8     9    1
    15     9    10    1
    16    10     1    1
    17     1     2   ar
    18     2     3   ar
    19     3     4   ar
    20     4    29    1
    21    29    30    1
    22    31    30    1
    23    31    32    1
    24    32    33    1
    25    33    34    1
    26    34    44    1
    27    44    45    1
    28    45    46   ar
    29    46    47   ar
    30    47    48   ar
    31    48    49   ar
    32    34    36    1
    33    36    37   ar
    34    37    38   ar
    35    38    39   ar
    36    39    40    1
    37    39    41   ar
    38    41    42   ar
    39    42    43    1
    40    34    35    1
    41     4     5   ar
    42     5     6   ar
    43    10    11    1
    44    11    12    1
    45    16    17   ar
    46    17    18   ar
    47    22    23   ar
    48    23    24    2
    49    23    19   ar
    50    18    13   ar
    51    12     7    1
    52     6     1   ar
    53    35    31    1
    54    49    45   ar
    55    42    36   ar
