@<TRIPOS>MOLECULE
*****
 42 46 0 0 0
SMALL
GASTEIGER

@<TRIPOS>ATOM
      1 C          61.0231   88.0980    9.0442 C.ar    1  UNL1        0.0797
      2 C          60.5651   88.3724    7.6424 C.ar    1  UNL1        0.0396
      3 C          59.9539   89.7419    7.6141 C.ar    1  UNL1        0.1024
      4 N          60.0341   90.3140    8.9984 N.ar    1  UNL1       -0.1691
      5 N          60.6949   89.2980    9.8823 N.ar    1  UNL1       -0.2487
      6 C          63.6807   82.7330   12.4211 C.ar    1  UNL1        0.1387
      7 C          62.9946   83.6386   13.4004 C.ar    1  UNL1        0.0369
      8 C          62.3258   84.8928   12.9208 C.ar    1  UNL1        0.0031
      9 C          62.3432   85.2413   11.4620 C.ar    1  UNL1        0.0002
     10 C          61.6745   86.4954   10.9825 C.ar    1  UNL1        0.0015
     11 C          61.6919   86.8439    9.5237 C.ar    1  UNL1        0.0174
     12 C          62.3780   85.9383    8.5443 C.ar    1  UNL1        0.0015
     13 C          63.0468   84.6841    9.0238 C.ar    1  UNL1        0.0001
     14 C          63.0293   84.3357   10.4828 C.ar    1  UNL1        0.0030
     15 C          63.6981   83.0815   10.9623 C.ar    1  UNL1        0.0369
     16 C          63.5904   80.5009   13.7476 C.3     1  UNL1        0.2525
     17 O          64.3495   81.4789   12.9006 O.3     1  UNL1       -0.4714
     18 C          59.3658   90.4203    6.4125 C.ar    1  UNL1        0.0211
     19 C          60.2644   91.0782    5.4078 C.ar    1  UNL1        0.0130
     20 C          59.6762   91.7566    4.2062 C.ar    1  UNL1        0.0586
     21 CL         60.5749   92.4146    3.2014 Cl      1  UNL1       -0.0822
     22 C          58.1893   91.7770    4.0094 C.ar    1  UNL1        0.0228
     23 C          57.2906   91.1191    5.0141 C.ar    1  UNL1        0.0586
     24 CL         55.8037   91.1395    4.8173 Cl      1  UNL1       -0.0822
     25 C          57.8789   90.4407    6.2157 C.ar    1  UNL1        0.0130
     26 C          60.9778   89.4545   11.3469 C.3     1  UNL1        0.1274
     27 C          60.0178   88.9035   12.3594 C.3     1  UNL1        0.0312
     28 C          62.2207   90.1620   11.7994 C.ar    1  UNL1       -0.0001
     29 C          63.0087   90.9893   10.8274 C.ar    1  UNL1       -0.0023
     30 C          64.2516   91.6968   11.2798 C.ar    1  UNL1        0.0042
     31 C          64.7064   91.5771   12.7042 C.ar    1  UNL1        0.0533
     32 C          63.9184   90.7499   13.6762 C.ar    1  UNL1        0.0042
     33 C          62.6755   90.0424   13.2238 C.ar    1  UNL1       -0.0023
     34 C          65.9493   92.2846   13.1566 C.2     1  UNL1        0.2459
     35 O          65.9087   93.7537   13.4572 O.2     1  UNL1       -0.2701
     36 N          67.2327   91.5232   13.3083 N.am    1  UNL1       -0.3005
     37 H          67.2593   90.5590   13.1110 H       1  UNL1        0.1498
     38 C          68.4756   92.2307   13.7607 C.3     1  UNL1        0.0956
     39 C          68.7922   92.3293   15.2235 C.3     1  UNL1        0.0629
     40 C          68.0861   93.3405   16.0772 C.2     1  UNL1        0.0520
     41 O          66.7154   93.0459   16.6104 O.co2   1  UNL1       -0.5491
     42 O          68.7508   94.6465   16.3978 O.co2   1  UNL1       -0.5491
@<TRIPOS>UNITY_ATOM_ATTR
41 1
charge -1
@<TRIPOS>BOND
     1    16    17    1
     2    17     6    1
     3     6     7   ar
     4     7     8   ar
     5     8     9   ar
     6     9    10   ar
     7    10    11   ar
     8    11     1    1
     9     1     2   ar
    10     2     3   ar
    11     3    18    1
    12    18    19   ar
    13    19    20   ar
    14    20    21    1
    15    20    22   ar
    16    22    23   ar
    17    23    24    1
    18    23    25   ar
    19     3     4   ar
    20     4     5   ar
    21     5    26    1
    22    26    27    1
    23    26    28    1
    24    28    29   ar
    25    29    30   ar
    26    30    31   ar
    27    31    34    1
    28    34    35    2
    29    34    36   am
    30    36    38    1
    31    38    39    1
    32    39    40    1
    33    40    41   ar
    34    40    42   ar
    35    31    32   ar
    36    32    33   ar
    37    11    12   ar
    38    12    13   ar
    39    13    14   ar
    40    14    15   ar
    41    15     6   ar
    42    14     9   ar
    43     5     1   ar
    44    33    28   ar
    45    25    18   ar
    46    36    37    1
@<TRIPOS>MOLECULE
*****
 42 46 0 0 0
SMALL
GASTEIGER

@<TRIPOS>ATOM
      1 C          61.0176   88.0972    9.0325 C.ar    1  UNL1        0.0797
      2 C          60.5578   88.3740    7.6318 C.ar    1  UNL1        0.0396
      3 C          59.9443   89.7426    7.6071 C.ar    1  UNL1        0.1024
      4 N          60.0248   90.3117    8.9926 N.ar    1  UNL1       -0.1691
      5 N          60.6882   89.2948    9.8736 N.ar    1  UNL1       -0.2487
      6 C          63.6629   82.7145   12.3908 C.ar    1  UNL1        0.1387
      7 C          62.9519   83.6022   13.3687 C.ar    1  UNL1        0.0369
      8 C          62.2806   84.8563   12.8926 C.ar    1  UNL1        0.0031
      9 C          62.3204   85.2227   11.4386 C.ar    1  UNL1        0.0002
     10 C          61.6491   86.4768   10.9625 C.ar    1  UNL1        0.0015
     11 C          61.6889   86.8432    9.5086 C.ar    1  UNL1        0.0174
     12 C          62.3999   85.9554    8.5306 C.ar    1  UNL1        0.0015
     13 C          63.0712   84.7013    9.0066 C.ar    1  UNL1        0.0001
     14 C          63.0314   84.3350   10.4607 C.ar    1  UNL1        0.0030
     15 C          63.7027   83.0809   10.9368 C.ar    1  UNL1        0.0369
     16 C          63.6036   80.5176   13.7763 C.3     1  UNL1        0.2525
     17 O          64.3342   81.4604   12.8669 O.3     1  UNL1       -0.4714
     18 C          59.3539   90.4226    6.4076 C.ar    1  UNL1        0.0211
     19 C          57.8672   90.4353    6.2087 C.ar    1  UNL1        0.0130
     20 C          57.2768   91.1154    5.0091 C.ar    1  UNL1        0.0586
     21 CL         55.7901   91.1280    4.8101 Cl      1  UNL1       -0.0822
     22 C          58.1732   91.7829    4.0086 C.ar    1  UNL1        0.0228
     23 C          59.6598   91.7703    4.2075 C.ar    1  UNL1        0.0586
     24 CL         60.5561   92.4378    3.2070 Cl      1  UNL1       -0.0822
     25 C          60.2502   91.0902    5.4071 C.ar    1  UNL1        0.0130
     26 C          60.9722   89.4485   11.3383 C.3     1  UNL1        0.1274
     27 C          60.0151   88.8918   12.3504 C.3     1  UNL1        0.0312
     28 C          62.2133   90.1589   11.7913 C.ar    1  UNL1       -0.0001
     29 C          62.6415   90.0791   13.2267 C.ar    1  UNL1       -0.0023
     30 C          63.8825   90.7895   13.6798 C.ar    1  UNL1        0.0042
     31 C          64.6953   91.5796   12.6974 C.ar    1  UNL1        0.0533
     32 C          64.2671   91.6595   11.2620 C.ar    1  UNL1        0.0042
     33 C          63.0261   90.9491   10.8090 C.ar    1  UNL1       -0.0023
     34 C          65.9363   92.2900   13.1504 C.2     1  UNL1        0.2459
     35 O          65.8924   93.7591   13.4506 O.2     1  UNL1       -0.2701
     36 N          67.2213   91.5314   13.3033 N.am    1  UNL1       -0.3005
     37 H          67.2501   90.5672   13.1063 H       1  UNL1        0.1498
     38 C          68.4623   92.2417   13.7563 C.3     1  UNL1        0.0956
     39 C          68.7808   92.3360   15.2191 C.3     1  UNL1        0.0629
     40 C          68.0748   93.3437   16.0770 C.2     1  UNL1        0.0520
     41 O          68.7488   94.6386   16.4220 O.co2   1  UNL1       -0.5491
     42 O          66.6948   93.0566   16.5899 O.co2   1  UNL1       -0.5491
@<TRIPOS>UNITY_ATOM_ATTR
41 1
charge -1
@<TRIPOS>BOND
     1    16    17    1
     2    17     6    1
     3     6     7   ar
     4     7     8   ar
     5     8     9   ar
     6     9    10   ar
     7    10    11   ar
     8    11     1    1
     9     1     2   ar
    10     2     3   ar
    11     3    18    1
    12    18    19   ar
    13    19    20   ar
    14    20    21    1
    15    20    22   ar
    16    22    23   ar
    17    23    24    1
    18    23    25   ar
    19     3     4   ar
    20     4     5   ar
    21     5    26    1
    22    26    27    1
    23    26    28    1
    24    28    29   ar
    25    29    30   ar
    26    30    31   ar
    27    31    34    1
    28    34    35    2
    29    34    36   am
    30    36    38    1
    31    38    39    1
    32    39    40    1
    33    40    41   ar
    34    40    42   ar
    35    31    32   ar
    36    32    33   ar
    37    11    12   ar
    38    12    13   ar
    39    13    14   ar
    40    14    15   ar
    41    15     6   ar
    42    14     9   ar
    43     5     1   ar
    44    33    28   ar
    45    25    18   ar
    46    36    37    1
@<TRIPOS>MOLECULE
*****
 42 46 0 0 0
SMALL
GASTEIGER

@<TRIPOS>ATOM
      1 C          62.9071   86.6256   12.2512 C.ar    1  UNL1        0.0797
      2 C          63.7251   87.5659   13.0859 C.ar    1  UNL1        0.0396
      3 C          63.5038   88.9566   12.5691 C.ar    1  UNL1        0.1024
      4 N          62.5490   88.8758   11.4151 N.ar    1  UNL1       -0.1691
      5 N          62.1802   87.4351   11.2185 N.ar    1  UNL1       -0.2487
      6 C          62.8444   79.7702   11.7516 C.ar    1  UNL1        0.1387
      7 C          63.1694   80.3573   10.4102 C.ar    1  UNL1        0.0369
      8 C          63.2470   81.8458   10.2418 C.ar    1  UNL1        0.0031
      9 C          62.9995   82.7472   11.4149 C.ar    1  UNL1        0.0002
     10 C          63.0770   84.2357   11.2465 C.ar    1  UNL1        0.0015
     11 C          62.8295   85.1371   12.4196 C.ar    1  UNL1        0.0174
     12 C          62.5045   84.5500   13.7612 C.ar    1  UNL1        0.0015
     13 C          62.4269   83.0615   13.9295 C.ar    1  UNL1        0.0001
     14 C          62.6745   82.1601   12.7564 C.ar    1  UNL1        0.0030
     15 C          62.5969   80.6716   12.9247 C.ar    1  UNL1        0.0369
     16 C          62.8061   77.3877   10.7162 C.3     1  UNL1        0.2525
     17 O          62.7669   78.2817   11.9200 O.3     1  UNL1       -0.4714
     18 C          64.1277   90.2083   13.1112 C.ar    1  UNL1        0.0211
     19 C          64.1967   90.4310   14.5929 C.ar    1  UNL1        0.0130
     20 C          64.8206   91.6827   15.1350 C.ar    1  UNL1        0.0586
     21 CL         64.8897   91.9054   16.6168 Cl      1  UNL1       -0.0822
     22 C          65.3755   92.7118   14.1952 C.ar    1  UNL1        0.0228
     23 C          65.3065   92.4891   12.7135 C.ar    1  UNL1        0.0586
     24 CL         65.8614   93.5182   11.7737 Cl      1  UNL1       -0.0822
     25 C          64.6826   91.2374   12.1714 C.ar    1  UNL1        0.0130
     26 C          61.2482   86.8983   10.1730 C.3     1  UNL1        0.1274
     27 C          60.8713   85.4464   10.1785 C.3     1  UNL1        0.0312
     28 C          60.6930   87.8133    9.1220 C.ar    1  UNL1       -0.0001
     29 C          60.8295   89.2994    9.2734 C.ar    1  UNL1       -0.0023
     30 C          60.2744   90.2145    8.2224 C.ar    1  UNL1        0.0042
     31 C          59.5828   89.6434    7.0201 C.ar    1  UNL1        0.0533
     32 C          59.4463   88.1573    6.8687 C.ar    1  UNL1        0.0042
     33 C          60.0015   87.2422    7.9196 C.ar    1  UNL1       -0.0023
     34 C          59.0277   90.5584    5.9691 C.2     1  UNL1        0.2459
     35 O          57.5464   90.6306    5.7439 O.2     1  UNL1       -0.2701
     36 N          59.9538   91.4013    5.1434 N.am    1  UNL1       -0.3005
     37 H          60.9260   91.3539    5.2912 H       1  UNL1        0.1498
     38 C          59.3987   92.3163    4.0924 C.3     1  UNL1        0.0956
     39 C          60.3260   93.0336    3.1566 C.3     1  UNL1        0.0629
     40 C          61.5703   92.3542    2.6667 C.2     1  UNL1        0.0520
     41 O          62.4834   91.6690    3.6397 O.co2   1  UNL1       -0.5491
     42 O          61.9015   92.3599    1.2038 O.co2   1  UNL1       -0.5491
@<TRIPOS>UNITY_ATOM_ATTR
41 1
charge -1
@<TRIPOS>BOND
     1    16    17    1
     2    17     6    1
     3     6     7   ar
     4     7     8   ar
     5     8     9   ar
     6     9    10   ar
     7    10    11   ar
     8    11     1    1
     9     1     2   ar
    10     2     3   ar
    11     3    18    1
    12    18    19   ar
    13    19    20   ar
    14    20    21    1
    15    20    22   ar
    16    22    23   ar
    17    23    24    1
    18    23    25   ar
    19     3     4   ar
    20     4     5   ar
    21     5    26    1
    22    26    27    1
    23    26    28    1
    24    28    29   ar
    25    29    30   ar
    26    30    31   ar
    27    31    34    1
    28    34    35    2
    29    34    36   am
    30    36    38    1
    31    38    39    1
    32    39    40    1
    33    40    41   ar
    34    40    42   ar
    35    31    32   ar
    36    32    33   ar
    37    11    12   ar
    38    12    13   ar
    39    13    14   ar
    40    14    15   ar
    41    15     6   ar
    42    14     9   ar
    43     5     1   ar
    44    33    28   ar
    45    25    18   ar
    46    36    37    1
@<TRIPOS>MOLECULE
*****
 42 46 0 0 0
SMALL
GASTEIGER

@<TRIPOS>ATOM
      1 C          61.0197   87.3756    9.8399 C.ar    1  UNL1        0.0797
      2 C          61.3900   85.9222    9.8582 C.ar    1  UNL1        0.0396
      3 C          62.0364   85.6251   11.1788 C.ar    1  UNL1        0.1024
      4 N          62.0656   86.8950   11.9767 N.ar    1  UNL1       -0.1691
      5 N          61.4373   87.9769   11.1492 N.ar    1  UNL1       -0.2487
      6 C          59.0940   91.3113    4.5435 C.ar    1  UNL1        0.1387
      7 C          60.5190   91.6223    4.8936 C.ar    1  UNL1        0.0369
      8 C          61.1891   90.8973    6.0230 C.ar    1  UNL1        0.0031
      9 C          60.4343   89.8614    6.8021 C.ar    1  UNL1        0.0002
     10 C          61.1044   89.1365    7.9314 C.ar    1  UNL1        0.0015
     11 C          60.3496   88.1006    8.7106 C.ar    1  UNL1        0.0174
     12 C          58.9245   87.7896    8.3604 C.ar    1  UNL1        0.0015
     13 C          58.2544   88.5146    7.2311 C.ar    1  UNL1        0.0001
     14 C          59.0093   89.5505    6.4519 C.ar    1  UNL1        0.0030
     15 C          58.3392   90.2754    5.3226 C.ar    1  UNL1        0.0369
     16 C          59.2503   92.7494    2.3854 C.3     1  UNL1        0.2525
     17 O          58.4239   92.0363    3.4142 O.3     1  UNL1       -0.4714
     18 C          62.5614   84.2923   11.6235 C.ar    1  UNL1        0.0211
     19 C          63.0073   84.0972   13.0423 C.ar    1  UNL1        0.0130
     20 C          63.5323   82.7643   13.4870 C.ar    1  UNL1        0.0586
     21 CL         63.9783   82.5692   14.9058 Cl      1  UNL1       -0.0822
     22 C          63.6113   81.6264   12.5128 C.ar    1  UNL1        0.0228
     23 C          63.1653   81.8214   11.0940 C.ar    1  UNL1        0.0586
     24 CL         63.2444   80.6835   10.1198 Cl      1  UNL1       -0.0822
     25 C          62.6404   83.1544   10.6493 C.ar    1  UNL1        0.0130
     26 C          61.2580   89.4086   11.5590 C.3     1  UNL1        0.1274
     27 C          59.9231   89.8873   12.0479 C.3     1  UNL1        0.0312
     28 C          62.4135   90.3618   11.4800 C.ar    1  UNL1       -0.0001
     29 C          63.2311   90.6522   12.7037 C.ar    1  UNL1       -0.0023
     30 C          64.3867   91.6053   12.6248 C.ar    1  UNL1        0.0042
     31 C          64.7246   92.2681   11.3222 C.ar    1  UNL1        0.0533
     32 C          63.9071   91.9777   10.0986 C.ar    1  UNL1        0.0042
     33 C          62.7515   91.0245   10.1775 C.ar    1  UNL1       -0.0023
     34 C          65.8801   93.2212   11.2434 C.2     1  UNL1        0.2459
     35 O          67.2833   92.7131   11.3959 O.2     1  UNL1       -0.2701
     36 N          65.6326   94.6824   11.0120 N.am    1  UNL1       -0.3005
     37 H          64.7117   95.0159   10.9118 H       1  UNL1        0.1498
     38 C          66.7881   95.6356   10.9331 C.3     1  UNL1        0.0956
     39 C          66.9985   96.4585    9.6968 C.3     1  UNL1        0.0629
     40 C          66.8445   95.8312    8.3430 C.2     1  UNL1        0.0520
     41 O          67.3632   94.4458    8.0949 O.co2   1  UNL1       -0.5491
     42 O          66.1718   96.5893    7.2372 O.co2   1  UNL1       -0.5491
@<TRIPOS>UNITY_ATOM_ATTR
41 1
charge -1
@<TRIPOS>BOND
     1    16    17    1
     2    17     6    1
     3     6     7   ar
     4     7     8   ar
     5     8     9   ar
     6     9    10   ar
     7    10    11   ar
     8    11     1    1
     9     1     2   ar
    10     2     3   ar
    11     3    18    1
    12    18    19   ar
    13    19    20   ar
    14    20    21    1
    15    20    22   ar
    16    22    23   ar
    17    23    24    1
    18    23    25   ar
    19     3     4   ar
    20     4     5   ar
    21     5    26    1
    22    26    27    1
    23    26    28    1
    24    28    29   ar
    25    29    30   ar
    26    30    31   ar
    27    31    34    1
    28    34    35    2
    29    34    36   am
    30    36    38    1
    31    38    39    1
    32    39    40    1
    33    40    41   ar
    34    40    42   ar
    35    31    32   ar
    36    32    33   ar
    37    11    12   ar
    38    12    13   ar
    39    13    14   ar
    40    14    15   ar
    41    15     6   ar
    42    14     9   ar
    43     5     1   ar
    44    33    28   ar
    45    25    18   ar
    46    36    37    1
@<TRIPOS>MOLECULE
*****
 42 46 0 0 0
SMALL
GASTEIGER

@<TRIPOS>ATOM
      1 C          60.9413   87.1222    9.9311 C.ar    1  UNL1        0.0797
      2 C          61.3350   85.6748    9.9219 C.ar    1  UNL1        0.0396
      3 C          61.9604   85.3561   11.2476 C.ar    1  UNL1        0.1024
      4 N          61.9531   86.6065   12.0761 N.ar    1  UNL1       -0.1691
      5 N          61.3233   87.6981   11.2625 N.ar    1  UNL1       -0.2487
      6 C          59.0436   91.1759    4.7142 C.ar    1  UNL1        0.1387
      7 C          60.4451   91.5228    5.1209 C.ar    1  UNL1        0.0369
      8 C          61.1049   90.7814    6.2456 C.ar    1  UNL1        0.0031
      9 C          60.3633   89.6932    6.9636 C.ar    1  UNL1        0.0002
     10 C          61.0231   88.9518    8.0883 C.ar    1  UNL1        0.0015
     11 C          60.2815   87.8636    8.8064 C.ar    1  UNL1        0.0174
     12 C          58.8799   87.5167    8.3997 C.ar    1  UNL1        0.0015
     13 C          58.2200   88.2580    7.2750 C.ar    1  UNL1        0.0001
     14 C          58.9618   89.3463    6.5570 C.ar    1  UNL1        0.0030
     15 C          58.3019   90.0877    5.4322 C.ar    1  UNL1        0.0369
     16 C          59.2196   92.6426    2.5769 C.3     1  UNL1        0.2525
     17 O          58.3837   91.9173    3.5895 O.3     1  UNL1       -0.4714
     18 C          62.4984   84.0214   11.6706 C.ar    1  UNL1        0.0211
     19 C          62.5805   82.8978   10.6803 C.ar    1  UNL1        0.0130
     20 C          63.1186   81.5631   11.1033 C.ar    1  UNL1        0.0586
     21 CL         63.2007   80.4394   10.1130 Cl      1  UNL1       -0.0822
     22 C          63.5747   81.3520   12.5166 C.ar    1  UNL1        0.0228
     23 C          63.4926   82.4756   13.5069 C.ar    1  UNL1        0.0586
     24 CL         63.9486   82.2645   14.9203 Cl      1  UNL1       -0.0822
     25 C          62.9545   83.8103   13.0839 C.ar    1  UNL1        0.0130
     26 C          61.1125   89.1163   11.7029 C.3     1  UNL1        0.1274
     27 C          59.7870   89.5382   12.2644 C.3     1  UNL1        0.0312
     28 C          62.2271   90.1129   11.5818 C.ar    1  UNL1       -0.0001
     29 C          62.4575   90.8261   10.2825 C.ar    1  UNL1       -0.0023
     30 C          63.5720   91.8227   10.1613 C.ar    1  UNL1        0.0042
     31 C          64.4561   92.1060   11.3395 C.ar    1  UNL1        0.0533
     32 C          64.2257   91.3928   12.6388 C.ar    1  UNL1        0.0042
     33 C          63.1112   90.3962   12.7600 C.ar    1  UNL1       -0.0023
     34 C          65.5706   93.1026   11.2184 C.2     1  UNL1        0.2459
     35 O          66.3884   93.4634   12.4231 O.2     1  UNL1       -0.2701
     36 N          65.8675   93.7383    9.8926 N.am    1  UNL1       -0.3005
     37 H          65.3308   93.5014    9.1019 H       1  UNL1        0.1498
     38 C          66.9820   94.7348    9.7714 C.3     1  UNL1        0.0956
     39 C          68.3188   94.3046    9.2442 C.3     1  UNL1        0.0629
     40 C          68.6949   92.8526    9.2488 C.2     1  UNL1        0.0520
     41 O          69.0071   92.1545    7.9584 O.co2   1  UNL1       -0.5491
     42 O          68.7588   92.0985   10.5439 O.co2   1  UNL1       -0.5491
@<TRIPOS>UNITY_ATOM_ATTR
41 1
charge -1
@<TRIPOS>BOND
     1    16    17    1
     2    17     6    1
     3     6     7   ar
     4     7     8   ar
     5     8     9   ar
     6     9    10   ar
     7    10    11   ar
     8    11     1    1
     9     1     2   ar
    10     2     3   ar
    11     3    18    1
    12    18    19   ar
    13    19    20   ar
    14    20    21    1
    15    20    22   ar
    16    22    23   ar
    17    23    24    1
    18    23    25   ar
    19     3     4   ar
    20     4     5   ar
    21     5    26    1
    22    26    27    1
    23    26    28    1
    24    28    29   ar
    25    29    30   ar
    26    30    31   ar
    27    31    34    1
    28    34    35    2
    29    34    36   am
    30    36    38    1
    31    38    39    1
    32    39    40    1
    33    40    41   ar
    34    40    42   ar
    35    31    32   ar
    36    32    33   ar
    37    11    12   ar
    38    12    13   ar
    39    13    14   ar
    40    14    15   ar
    41    15     6   ar
    42    14     9   ar
    43     5     1   ar
    44    33    28   ar
    45    25    18   ar
    46    36    37    1
@<TRIPOS>MOLECULE
*****
 42 46 0 0 0
SMALL
GASTEIGER

@<TRIPOS>ATOM
      1 C          63.8946   88.6122   13.9755 C.ar    1  UNL1        0.0797
      2 C          65.1622   89.3731   14.2285 C.ar    1  UNL1        0.0396
      3 C          64.8581   90.8363   14.0999 C.ar    1  UNL1        0.1024
      4 N          63.4025   90.9797   13.7673 N.ar    1  UNL1       -0.1691
      5 N          62.8069   89.6051   13.6904 N.ar    1  UNL1       -0.2487
      6 C          62.9021   81.9066   12.8350 C.ar    1  UNL1        0.1387
      7 C          62.6755   82.6607   11.5582 C.ar    1  UNL1        0.0369
      8 C          62.8287   84.1526   11.5310 C.ar    1  UNL1        0.0031
      9 C          63.2085   84.8905   12.7805 C.ar    1  UNL1        0.0002
     10 C          63.3616   86.3824   12.7532 C.ar    1  UNL1        0.0015
     11 C          63.7414   87.1202   14.0027 C.ar    1  UNL1        0.0174
     12 C          63.9680   86.3662   15.2795 C.ar    1  UNL1        0.0015
     13 C          63.8148   84.8743   15.3068 C.ar    1  UNL1        0.0001
     14 C          63.4350   84.1364   14.0572 C.ar    1  UNL1        0.0030
     15 C          63.2819   82.6445   14.0844 C.ar    1  UNL1        0.0369
     16 C          61.6716   79.7865   13.6956 C.3     1  UNL1        0.2525
     17 O          62.7489   80.4147   12.8622 O.3     1  UNL1       -0.4714
     18 C          65.8376   91.9590   14.2733 C.ar    1  UNL1        0.0211
     19 C          65.7099   93.2009   13.4418 C.ar    1  UNL1        0.0130
     20 C          66.6894   94.3236   13.6153 C.ar    1  UNL1        0.0586
     21 CL         66.5618   95.5655   12.7838 Cl      1  UNL1       -0.0822
     22 C          67.7966   94.2044   14.6203 C.ar    1  UNL1        0.0228
     23 C          67.9243   92.9625   15.4518 C.ar    1  UNL1        0.0586
     24 CL         69.0314   92.8433   16.4568 Cl      1  UNL1       -0.0822
     25 C          66.9447   91.8398   15.2783 C.ar    1  UNL1        0.0130
     26 C          61.3753   89.2805   13.3825 C.3     1  UNL1        0.1274
     27 C          60.4052   89.0336   14.4998 C.3     1  UNL1        0.0312
     28 C          60.9135   89.2026   11.9575 C.ar    1  UNL1       -0.0001
     29 C          60.6770   87.8665   11.3178 C.ar    1  UNL1       -0.0023
     30 C          60.2152   87.7885    9.8928 C.ar    1  UNL1        0.0042
     31 C          59.9900   89.0466    9.1075 C.ar    1  UNL1        0.0533
     32 C          60.2265   90.3826    9.7471 C.ar    1  UNL1        0.0042
     33 C          60.6883   90.4606   11.1721 C.ar    1  UNL1       -0.0023
     34 C          59.5282   88.9686    7.6825 C.2     1  UNL1        0.2459
     35 O          59.1924   87.6389    7.0746 O.2     1  UNL1       -0.2701
     36 N          59.4021   90.2201    6.8653 N.am    1  UNL1       -0.3005
     37 H          59.6225   91.0928    7.2643 H       1  UNL1        0.1498
     38 C          58.9404   90.1421    5.4403 C.3     1  UNL1        0.0956
     39 C          58.7350   91.3995    4.6485 C.3     1  UNL1        0.0629
     40 C          59.9190   92.1671    4.1396 C.2     1  UNL1        0.0520
     41 O          59.7140   93.3787    3.2796 O.co2   1  UNL1       -0.5491
     42 O          61.3081   91.7230    4.4908 O.co2   1  UNL1       -0.5491
@<TRIPOS>UNITY_ATOM_ATTR
41 1
charge -1
@<TRIPOS>BOND
     1    16    17    1
     2    17     6    1
     3     6     7   ar
     4     7     8   ar
     5     8     9   ar
     6     9    10   ar
     7    10    11   ar
     8    11     1    1
     9     1     2   ar
    10     2     3   ar
    11     3    18    1
    12    18    19   ar
    13    19    20   ar
    14    20    21    1
    15    20    22   ar
    16    22    23   ar
    17    23    24    1
    18    23    25   ar
    19     3     4   ar
    20     4     5   ar
    21     5    26    1
    22    26    27    1
    23    26    28    1
    24    28    29   ar
    25    29    30   ar
    26    30    31   ar
    27    31    34    1
    28    34    35    2
    29    34    36   am
    30    36    38    1
    31    38    39    1
    32    39    40    1
    33    40    41   ar
    34    40    42   ar
    35    31    32   ar
    36    32    33   ar
    37    11    12   ar
    38    12    13   ar
    39    13    14   ar
    40    14    15   ar
    41    15     6   ar
    42    14     9   ar
    43     5     1   ar
    44    33    28   ar
    45    25    18   ar
    46    36    37    1
@<TRIPOS>MOLECULE
*****
 42 46 0 0 0
SMALL
GASTEIGER

@<TRIPOS>ATOM
      1 C          61.0868   87.4543    9.8246 C.ar    1  UNL1        0.0797
      2 C          61.3505   85.9798    9.9050 C.ar    1  UNL1        0.0396
      3 C          62.0576   85.7052   11.1990 C.ar    1  UNL1        0.1024
      4 N          62.2310   87.0100   11.9184 N.ar    1  UNL1       -0.1691
      5 N          61.6311   88.0910   11.0690 N.ar    1  UNL1       -0.2487
      6 C          59.0827   91.3280    4.5116 C.ar    1  UNL1        0.1387
      7 C          60.5146   91.6384    4.8331 C.ar    1  UNL1        0.0369
      8 C          61.2018   90.9258    5.9600 C.ar    1  UNL1        0.0031
      9 C          60.4571   89.9027    6.7654 C.ar    1  UNL1        0.0002
     10 C          61.1443   89.1900    7.8923 C.ar    1  UNL1        0.0015
     11 C          60.3997   88.1669    8.6977 C.ar    1  UNL1        0.0174
     12 C          58.9677   87.8564    8.3762 C.ar    1  UNL1        0.0015
     13 C          58.2805   88.5691    7.2493 C.ar    1  UNL1        0.0001
     14 C          59.0253   89.5922    6.4439 C.ar    1  UNL1        0.0030
     15 C          58.3381   90.3049    5.3170 C.ar    1  UNL1        0.0369
     16 C          59.2055   92.7638    2.3498 C.3     1  UNL1        0.2525
     17 O          58.3956   92.0406    3.3847 O.3     1  UNL1       -0.4714
     18 C          62.5116   84.3618   11.6879 C.ar    1  UNL1        0.0211
     19 C          62.6352   83.2166   10.7272 C.ar    1  UNL1        0.0130
     20 C          63.0892   81.8731   11.2161 C.ar    1  UNL1        0.0586
     21 CL         63.2128   80.7278   10.2553 Cl      1  UNL1       -0.0822
     22 C          63.4197   81.6750   12.6658 C.ar    1  UNL1        0.0228
     23 C          63.2961   82.8203   13.6265 C.ar    1  UNL1        0.0586
     24 CL         63.6266   82.6222   15.0762 Cl      1  UNL1       -0.0822
     25 C          62.8421   84.1637   13.1376 C.ar    1  UNL1        0.0130
     26 C          61.5836   89.5521   11.4049 C.3     1  UNL1        0.1274
     27 C          60.2830   90.2962   11.3341 C.3     1  UNL1        0.0312
     28 C          62.8367   90.2693   11.8117 C.ar    1  UNL1       -0.0001
     29 C          63.4129   90.0548   13.1800 C.ar    1  UNL1       -0.0023
     30 C          64.6660   90.7720   13.5869 C.ar    1  UNL1        0.0042
     31 C          65.3428   91.7035   12.6256 C.ar    1  UNL1        0.0533
     32 C          64.7666   91.9180   11.2574 C.ar    1  UNL1        0.0042
     33 C          63.5135   91.2008   10.8504 C.ar    1  UNL1       -0.0023
     34 C          66.5958   92.4207   13.0325 C.2     1  UNL1        0.2459
     35 O          66.6590   93.9179   12.9642 O.2     1  UNL1       -0.2701
     36 N          67.7857   91.6407   13.5077 N.am    1  UNL1       -0.3005
     37 H          67.7443   90.6581   13.5525 H       1  UNL1        0.1498
     38 C          69.0387   92.3579   13.9146 C.3     1  UNL1        0.0956
     39 C          69.2819   92.6822   15.3588 C.3     1  UNL1        0.0629
     40 C          68.3622   93.6211   16.0818 C.2     1  UNL1        0.0520
     41 O          68.8328   94.9969   16.4499 O.co2   1  UNL1       -0.5491
     42 O          66.9718   93.1841   16.4366 O.co2   1  UNL1       -0.5491
@<TRIPOS>UNITY_ATOM_ATTR
41 1
charge -1
@<TRIPOS>BOND
     1    16    17    1
     2    17     6    1
     3     6     7   ar
     4     7     8   ar
     5     8     9   ar
     6     9    10   ar
     7    10    11   ar
     8    11     1    1
     9     1     2   ar
    10     2     3   ar
    11     3    18    1
    12    18    19   ar
    13    19    20   ar
    14    20    21    1
    15    20    22   ar
    16    22    23   ar
    17    23    24    1
    18    23    25   ar
    19     3     4   ar
    20     4     5   ar
    21     5    26    1
    22    26    27    1
    23    26    28    1
    24    28    29   ar
    25    29    30   ar
    26    30    31   ar
    27    31    34    1
    28    34    35    2
    29    34    36   am
    30    36    38    1
    31    38    39    1
    32    39    40    1
    33    40    41   ar
    34    40    42   ar
    35    31    32   ar
    36    32    33   ar
    37    11    12   ar
    38    12    13   ar
    39    13    14   ar
    40    14    15   ar
    41    15     6   ar
    42    14     9   ar
    43     5     1   ar
    44    33    28   ar
    45    25    18   ar
    46    36    37    1
