@<TRIPOS>MOLECULE
*****
 39 43 0 0 0
SMALL
GASTEIGER

@<TRIPOS>ATOM
      1 C          64.6209   90.7396   14.8134 C.3     1  UNL1        0.2250
      2 C          65.6600   91.6408   14.2150 C.2     1  UNL1        0.0436
      3 C          66.1129   92.8614   14.9600 C.2     1  UNL1        0.0288
      4 C          65.5269   93.1808   16.3034 C.2     1  UNL1        0.0896
      5 N          64.4878   92.2795   16.9017 N.am    1  UNL1       -0.1770
      6 C          64.0348   91.0590   16.1567 C.2     1  UNL1        0.2627
      7 O          62.9957   90.1577   16.7550 O.2     1  UNL1       -0.2719
      8 C          62.9995   85.0907   12.1554 C.2     1  UNL1        0.0332
      9 C          62.3726   85.9626   11.1082 C.2     1  UNL1        0.0101
     10 C          62.4515   87.4556   11.2296 C.2     1  UNL1        0.0255
     11 C          61.8246   88.3274   10.1822 C.3     1  UNL1        0.0351
     12 C          63.1573   88.0767   12.3984 C.2     1  UNL1        0.2278
     13 N          63.3944   89.5070   12.7832 N.2     1  UNL1       -0.0345
     14 C          64.1678   89.5190   14.0684 C.2     1  UNL1        0.3649
     15 N          64.4087   88.0962   14.4779 N.2     1  UNL1       -0.0380
     16 C          63.7841   87.2048   13.4457 C.2     1  UNL1        0.2184
     17 C          63.7052   85.7118   13.3243 C.3     1  UNL1        0.1186
     18 C          62.7629   80.6117   11.7910 C.3     1  UNL1        0.0574
     19 C          63.3505   81.4250   10.6760 C.3     1  UNL1        0.0372
     20 C          63.4293   82.9179   10.7975 C.3     1  UNL1        0.0919
     21 N          62.9206   83.5977   12.0340 N.pl3   1  UNL1       -0.3103
     22 C          62.3330   82.7845   13.1490 C.3     1  UNL1        0.0919
     23 C          62.2541   81.2915   13.0276 C.3     1  UNL1        0.0372
     24 C          62.7380   78.4725   10.3170 C.3     1  UNL1        0.0858
     25 N          62.6841   79.1187   11.6696 N.3     1  UNL1       -0.2973
     26 H          63.4614   78.7379   12.2091 H       1  UNL1        0.1233
     27 N          66.2461   91.3216   12.8717 N.pl3   1  UNL1       -0.3329
     28 H          65.8453   90.6154   12.3150 H       1  UNL1        0.1466
     29 C          67.4428   92.0782   12.3765 C.3     1  UNL1        0.1211
     30 C          67.4706   92.6011   10.9709 C.3     1  UNL1        0.1522
     31 O          67.8982   91.7058    9.8459 O.3     1  UNL1       -0.3783
     32 H          68.1213   90.8295   10.1970 H       1  UNL1        0.2109
     33 C          67.0707   94.0193   10.6902 C.ar    1  UNL1        0.0067
     34 C          66.2352   94.7733   11.6818 C.ar    1  UNL1       -0.0018
     35 C          65.8354   96.1915   11.4011 C.ar    1  UNL1        0.0006
     36 C          66.2711   96.8558   10.1288 C.ar    1  UNL1        0.0114
     37 C          67.1067   96.1018    9.1372 C.ar    1  UNL1        0.0574
     38 CL         67.5424   96.7662    7.8649 Cl      1  UNL1       -0.0823
     39 C          67.5065   94.6836    9.4179 C.ar    1  UNL1        0.0095
@<TRIPOS>BOND
     1    24    25    1
     2    25    18    1
     3    18    19    1
     4    19    20    1
     5    20    21    1
     6    21     8    1
     7     8     9    2
     8     9    10    1
     9    10    11    1
    10    10    12    2
    11    12    13    1
    12    13    14    2
    13    14     1    1
    14     1     2    1
    15     2    27    1
    16    27    29    1
    17    29    30    1
    18    30    31    1
    19    30    33    1
    20    33    34   ar
    21    34    35   ar
    22    35    36   ar
    23    36    37   ar
    24    37    38    1
    25    37    39   ar
    26     2     3    2
    27     3     4    1
    28     4     5    2
    29     5     6    1
    30     6     7    2
    31    14    15    1
    32    15    16    2
    33    16    17    1
    34    21    22    1
    35    22    23    1
    36    23    18    1
    37    17     8    1
    38    16    12    1
    39     6     1    1
    40    39    33   ar
    41    25    26    1
    42    27    28    1
    43    31    32    1
@<TRIPOS>MOLECULE
*****
 39 43 0 0 0
SMALL
GASTEIGER

@<TRIPOS>ATOM
      1 C          61.1748   87.8354    9.6132 C.3     1  UNL1        0.2250
      2 C          61.4228   86.5063    8.9636 C.2     1  UNL1        0.0436
      3 C          60.5051   86.0170    7.8825 C.2     1  UNL1        0.0288
      4 C          59.3395   86.8568    7.4511 C.2     1  UNL1        0.0896
      5 N          59.0915   88.1859    8.1007 N.am    1  UNL1       -0.1770
      6 C          60.0092   88.6752    9.1818 C.2     1  UNL1        0.2627
      7 O          59.7612   90.0042    9.8314 O.2     1  UNL1       -0.2719
      8 C          65.1917   90.5679   13.8559 C.2     1  UNL1        0.0332
      9 C          64.9958   89.2827   14.6040 C.2     1  UNL1        0.0101
     10 C          64.1032   88.2162   14.0419 C.2     1  UNL1        0.0255
     11 C          63.9074   86.9309   14.7901 C.3     1  UNL1        0.0351
     12 C          63.4065   88.4351   12.7317 C.2     1  UNL1        0.2278
     13 N          62.4733   87.5725   11.9348 N.2     1  UNL1       -0.0345
     14 C          62.0924   88.3247   10.6942 C.2     1  UNL1        0.3649
     15 N          62.7902   89.6522   10.7243 N.2     1  UNL1       -0.0380
     16 C          63.6024   89.7204   11.9836 C.2     1  UNL1        0.2184
     17 C          64.4950   90.7868   12.5457 C.3     1  UNL1        0.1186
     18 C          67.8696   93.7672   15.5423 C.3     1  UNL1        0.0574
     19 C          67.9376   92.3700   16.0836 C.3     1  UNL1        0.0372
     20 C          67.0450   91.3036   15.5215 C.3     1  UNL1        0.0919
     21 N          66.0843   91.6344   14.4180 N.pl3   1  UNL1       -0.3103
     22 C          66.0163   93.0316   13.8767 C.3     1  UNL1        0.0919
     23 C          66.9089   94.0981   14.4388 C.3     1  UNL1        0.0372
     24 C          70.2494   94.6383   16.1147 C.3     1  UNL1        0.0858
     25 N          68.7622   94.8336   16.1044 N.3     1  UNL1       -0.2973
     26 H          68.5804   95.6824   15.5687 H       1  UNL1        0.1233
     27 N          62.5884   85.6665    9.3949 N.pl3   1  UNL1       -0.3329
     28 H          63.4850   86.0671    9.4638 H       1  UNL1        0.1466
     29 C          62.3879   84.2162    9.7214 C.3     1  UNL1        0.1211
     30 C          63.3788   83.4989   10.5894 C.3     1  UNL1        0.1522
     31 O          64.8120   83.3909   10.1601 O.3     1  UNL1       -0.3783
     32 H          64.9278   83.8346    9.3053 H       1  UNL1        0.2109
     33 C          62.9366   82.8897   11.8868 C.ar    1  UNL1        0.0067
     34 C          62.6125   81.4268   11.9565 C.ar    1  UNL1       -0.0018
     35 C          62.1702   80.8175   13.2539 C.ar    1  UNL1        0.0006
     36 C          62.0521   81.6712   14.4816 C.ar    1  UNL1        0.0114
     37 C          62.3762   83.1341   14.4119 C.ar    1  UNL1        0.0574
     38 CL         62.2580   83.9877   15.6396 Cl      1  UNL1       -0.0823
     39 C          62.8184   83.7433   13.1145 C.ar    1  UNL1        0.0095
@<TRIPOS>BOND
     1    24    25    1
     2    25    18    1
     3    18    19    1
     4    19    20    1
     5    20    21    1
     6    21     8    1
     7     8     9    2
     8     9    10    1
     9    10    11    1
    10    10    12    2
    11    12    13    1
    12    13    14    2
    13    14     1    1
    14     1     2    1
    15     2    27    1
    16    27    29    1
    17    29    30    1
    18    30    31    1
    19    30    33    1
    20    33    34   ar
    21    34    35   ar
    22    35    36   ar
    23    36    37   ar
    24    37    38    1
    25    37    39   ar
    26     2     3    2
    27     3     4    1
    28     4     5    2
    29     5     6    1
    30     6     7    2
    31    14    15    1
    32    15    16    2
    33    16    17    1
    34    21    22    1
    35    22    23    1
    36    23    18    1
    37    17     8    1
    38    16    12    1
    39     6     1    1
    40    39    33   ar
    41    25    26    1
    42    27    28    1
    43    31    32    1
@<TRIPOS>MOLECULE
*****
 39 43 0 0 0
SMALL
GASTEIGER

@<TRIPOS>ATOM
      1 C          63.1389   83.6451   13.6682 C.3     1  UNL1        0.2250
      2 C          62.6019   83.2646   12.3203 C.2     1  UNL1        0.0436
      3 C          62.3294   81.8245   12.0008 C.2     1  UNL1        0.0288
      4 C          62.5937   80.7650   13.0291 C.2     1  UNL1        0.0896
      5 N          63.1307   81.1455   14.3770 N.am    1  UNL1       -0.1770
      6 C          63.4033   82.5856   14.6965 C.2     1  UNL1        0.2627
      7 O          63.9402   82.9660   16.0445 O.2     1  UNL1       -0.2719
      8 C          64.5736   89.8974   14.3410 C.2     1  UNL1        0.0332
      9 C          64.0325   89.6928   15.7249 C.2     1  UNL1        0.0101
     10 C          63.5259   88.3433   16.1402 C.2     1  UNL1        0.0255
     11 C          62.9848   88.1387   17.5242 C.3     1  UNL1        0.0351
     12 C          63.5604   87.1986   15.1715 C.2     1  UNL1        0.2278
     13 N          63.1339   85.7659   15.2952 N.2     1  UNL1       -0.0345
     14 C          63.4115   85.0851   13.9878 C.2     1  UNL1        0.3649
     15 N          64.0095   86.0971   13.0559 N.2     1  UNL1       -0.0380
     16 C          64.1015   87.4033   13.7875 C.2     1  UNL1        0.2184
     17 C          64.6081   88.7527   13.3723 C.3     1  UNL1        0.1186
     18 C          66.0936   93.9457   13.0953 C.3     1  UNL1        0.0574
     19 C          66.3377   93.4493   14.4896 C.3     1  UNL1        0.0372
     20 C          65.8310   92.0999   14.9048 C.3     1  UNL1        0.0919
     21 N          65.0803   91.2469   13.9257 N.pl3   1  UNL1       -0.3103
     22 C          64.8361   91.7432   12.5315 C.3     1  UNL1        0.0919
     23 C          65.3428   93.0926   12.1162 C.3     1  UNL1        0.0372
     24 C          66.0992   95.9278   11.4157 C.3     1  UNL1        0.0858
     25 N          66.6002   95.2951   12.6801 N.3     1  UNL1       -0.2973
     26 H          66.3790   95.9391   13.4394 H       1  UNL1        0.1233
     27 N          62.3375   84.3240   11.2919 N.pl3   1  UNL1       -0.3329
     28 H          61.6191   84.9815   11.4361 H       1  UNL1        0.1466
     29 C          63.1676   84.3817   10.0439 C.3     1  UNL1        0.1211
     30 C          62.6818   85.1569    8.8552 C.3     1  UNL1        0.1522
     31 O          63.0086   84.6868    7.4687 O.3     1  UNL1       -0.3783
     32 H          63.5361   83.8744    7.5187 H       1  UNL1        0.2109
     33 C          61.8691   86.4021    9.0529 C.ar    1  UNL1        0.0067
     34 C          60.4612   86.4682    8.5398 C.ar    1  UNL1       -0.0018
     35 C          59.6486   87.7134    8.7375 C.ar    1  UNL1        0.0006
     36 C          60.2439   88.8925    9.4484 C.ar    1  UNL1        0.0114
     37 C          61.6518   88.8264    9.9616 C.ar    1  UNL1        0.0574
     38 CL         62.2471   90.0055   10.6725 Cl      1  UNL1       -0.0823
     39 C          62.4644   87.5812    9.7638 C.ar    1  UNL1        0.0095
@<TRIPOS>BOND
     1    24    25    1
     2    25    18    1
     3    18    19    1
     4    19    20    1
     5    20    21    1
     6    21     8    1
     7     8     9    2
     8     9    10    1
     9    10    11    1
    10    10    12    2
    11    12    13    1
    12    13    14    2
    13    14     1    1
    14     1     2    1
    15     2    27    1
    16    27    29    1
    17    29    30    1
    18    30    31    1
    19    30    33    1
    20    33    34   ar
    21    34    35   ar
    22    35    36   ar
    23    36    37   ar
    24    37    38    1
    25    37    39   ar
    26     2     3    2
    27     3     4    1
    28     4     5    2
    29     5     6    1
    30     6     7    2
    31    14    15    1
    32    15    16    2
    33    16    17    1
    34    21    22    1
    35    22    23    1
    36    23    18    1
    37    17     8    1
    38    16    12    1
    39     6     1    1
    40    39    33   ar
    41    25    26    1
    42    27    28    1
    43    31    32    1
@<TRIPOS>MOLECULE
*****
 39 43 0 0 0
SMALL
GASTEIGER

@<TRIPOS>ATOM
      1 C          65.1667   91.6114   13.5437 C.3     1  UNL1        0.2250
      2 C          64.9679   92.0761   12.1314 C.2     1  UNL1        0.0436
      3 C          65.4209   93.4463   11.7221 C.2     1  UNL1        0.0288
      4 C          66.0726   94.3516   12.7248 C.2     1  UNL1        0.0896
      5 N          66.2714   93.8869   14.1371 N.am    1  UNL1       -0.1770
      6 C          65.8184   92.5167   14.5465 C.2     1  UNL1        0.2627
      7 O          66.0172   92.0520   15.9587 O.2     1  UNL1       -0.2719
      8 C          63.3711   85.5070   14.6001 C.2     1  UNL1        0.0332
      9 C          63.0935   86.0126   15.9847 C.2     1  UNL1        0.0101
     10 C          63.3470   87.4520   16.3225 C.2     1  UNL1        0.0255
     11 C          63.0693   87.9575   17.7072 C.3     1  UNL1        0.0351
     12 C          63.8780   88.3857   15.2756 C.2     1  UNL1        0.2278
     13 N          64.2230   89.8450   15.3141 N.2     1  UNL1       -0.0345
     14 C          64.7138   90.2413   13.9532 C.2     1  UNL1        0.3649
     15 N          64.6722   89.0269   13.0736 N.2     1  UNL1       -0.0380
     16 C          64.1556   87.8801   13.8909 C.2     1  UNL1        0.2184
     17 C          63.9022   86.4408   13.5531 C.3     1  UNL1        0.1186
     18 C          62.6109   81.1890   13.5866 C.3     1  UNL1        0.0574
     19 C          63.7468   81.9230   12.9377 C.3     1  UNL1        0.0372
     20 C          64.0002   83.3623   13.2755 C.3     1  UNL1        0.0919
     21 N          63.1177   84.0676   14.2623 N.pl3   1  UNL1       -0.3103
     22 C          61.9819   83.3337   14.9111 C.3     1  UNL1        0.0919
     23 C          61.7284   81.8943   14.5733 C.3     1  UNL1        0.0372
     24 C          62.6256   79.2466   11.8613 C.3     1  UNL1        0.0858
     25 N          62.3576   79.7497   13.2487 N.3     1  UNL1       -0.2973
     26 H          62.9337   79.1932   13.8802 H       1  UNL1        0.1233
     27 N          64.3163   91.1709   11.1286 N.pl3   1  UNL1       -0.3329
     28 H          64.8626   90.5387   10.6079 H       1  UNL1        0.1466
     29 C          62.8321   91.2287   10.9190 C.3     1  UNL1        0.1211
     30 C          61.9670   90.0864   11.3626 C.3     1  UNL1        0.1522
     31 O          61.5205   89.9947   12.7917 O.3     1  UNL1       -0.3783
     32 H          61.8761   90.7468   13.2905 H       1  UNL1        0.2109
     33 C          61.5484   89.0359   10.3772 C.ar    1  UNL1        0.0067
     34 C          60.2988   89.2214    9.5685 C.ar    1  UNL1       -0.0018
     35 C          59.8802   88.1709    8.5830 C.ar    1  UNL1        0.0006
     36 C          60.7112   86.9347    8.4062 C.ar    1  UNL1        0.0114
     37 C          61.9608   86.7491    9.2149 C.ar    1  UNL1        0.0574
     38 CL         62.7918   85.5129    9.0381 Cl      1  UNL1       -0.0823
     39 C          62.3794   87.7997   10.2004 C.ar    1  UNL1        0.0095
@<TRIPOS>BOND
     1    24    25    1
     2    25    18    1
     3    18    19    1
     4    19    20    1
     5    20    21    1
     6    21     8    1
     7     8     9    2
     8     9    10    1
     9    10    11    1
    10    10    12    2
    11    12    13    1
    12    13    14    2
    13    14     1    1
    14     1     2    1
    15     2    27    1
    16    27    29    1
    17    29    30    1
    18    30    31    1
    19    30    33    1
    20    33    34   ar
    21    34    35   ar
    22    35    36   ar
    23    36    37   ar
    24    37    38    1
    25    37    39   ar
    26     2     3    2
    27     3     4    1
    28     4     5    2
    29     5     6    1
    30     6     7    2
    31    14    15    1
    32    15    16    2
    33    16    17    1
    34    21    22    1
    35    22    23    1
    36    23    18    1
    37    17     8    1
    38    16    12    1
    39     6     1    1
    40    39    33   ar
    41    25    26    1
    42    27    28    1
    43    31    32    1
@<TRIPOS>MOLECULE
*****
 39 43 0 0 0
SMALL
GASTEIGER

@<TRIPOS>ATOM
      1 C          63.8513   90.8980   14.6011 C.3     1  UNL1        0.2250
      2 C          63.6308   90.5949   16.0535 C.2     1  UNL1        0.0436
      3 C          64.3675   91.3740   17.1025 C.2     1  UNL1        0.0288
      4 C          65.3248   92.4561   16.6991 C.2     1  UNL1        0.0896
      5 N          65.5454   92.7591   15.2467 N.am    1  UNL1       -0.1770
      6 C          64.8086   91.9800   14.1977 C.2     1  UNL1        0.2627
      7 O          65.0292   92.2830   12.7453 O.2     1  UNL1       -0.2719
      8 C          61.3572   87.3163    9.8520 C.2     1  UNL1        0.0332
      9 C          60.0529   87.8254   10.3899 C.2     1  UNL1        0.0101
     10 C          60.0387   88.7547   11.5674 C.2     1  UNL1        0.0255
     11 C          58.7342   89.2637   12.1053 C.3     1  UNL1        0.0351
     12 C          61.3288   89.1747   12.2068 C.2     1  UNL1        0.2278
     13 N          61.6264   90.0730   13.3707 N.2     1  UNL1       -0.0345
     14 C          63.1146   90.1190   13.5521 C.2     1  UNL1        0.3649
     15 N          63.7369   89.2492   12.5003 N.2     1  UNL1       -0.0380
     16 C          62.6332   88.6656   11.6689 C.2     1  UNL1        0.2184
     17 C          62.6474   87.7364   10.4914 C.3     1  UNL1        0.1186
     18 C          61.3999   84.5287    6.3196 C.3     1  UNL1        0.0574
     19 C          60.1246   85.2065    6.7248 C.3     1  UNL1        0.0372
     20 C          60.1104   86.1357    7.9022 C.3     1  UNL1        0.0919
     21 N          61.3715   86.3871    8.6745 N.pl3   1  UNL1       -0.3103
     22 C          62.6468   85.7094    8.2693 C.3     1  UNL1        0.0919
     23 C          62.6610   84.7801    7.0918 C.3     1  UNL1        0.0372
     24 C          61.6049   84.1455    3.7581 C.3     1  UNL1        0.0858
     25 N          61.4141   83.5995    5.1421 N.3     1  UNL1       -0.2973
     26 H          62.1692   82.9328    5.3023 H       1  UNL1        0.1233
     27 N          62.6735   89.5129   16.4570 N.pl3   1  UNL1       -0.3329
     28 H          61.7125   89.6095   16.2661 H       1  UNL1        0.1466
     29 C          63.1803   88.2837   17.1513 C.3     1  UNL1        0.1211
     30 C          62.6006   86.9411   16.8177 C.3     1  UNL1        0.1522
     31 O          61.2656   86.5417   17.3729 O.3     1  UNL1       -0.3783
     32 H          60.9160   87.2602   17.9228 H       1  UNL1        0.2109
     33 C          63.3559   85.9979   15.9290 C.ar    1  UNL1        0.0067
     34 C          64.6494   86.4296   15.3042 C.ar    1  UNL1       -0.0018
     35 C          65.4047   85.4864   14.4155 C.ar    1  UNL1        0.0006
     36 C          64.8664   84.1114   14.1514 C.ar    1  UNL1        0.0114
     37 C          63.5729   83.6797   14.7761 C.ar    1  UNL1        0.0574
     38 CL         63.0346   82.3047   14.5121 Cl      1  UNL1       -0.0823
     39 C          62.8176   84.6229   15.6649 C.ar    1  UNL1        0.0095
@<TRIPOS>BOND
     1    24    25    1
     2    25    18    1
     3    18    19    1
     4    19    20    1
     5    20    21    1
     6    21     8    1
     7     8     9    2
     8     9    10    1
     9    10    11    1
    10    10    12    2
    11    12    13    1
    12    13    14    2
    13    14     1    1
    14     1     2    1
    15     2    27    1
    16    27    29    1
    17    29    30    1
    18    30    31    1
    19    30    33    1
    20    33    34   ar
    21    34    35   ar
    22    35    36   ar
    23    36    37   ar
    24    37    38    1
    25    37    39   ar
    26     2     3    2
    27     3     4    1
    28     4     5    2
    29     5     6    1
    30     6     7    2
    31    14    15    1
    32    15    16    2
    33    16    17    1
    34    21    22    1
    35    22    23    1
    36    23    18    1
    37    17     8    1
    38    16    12    1
    39     6     1    1
    40    39    33   ar
    41    25    26    1
    42    27    28    1
    43    31    32    1
@<TRIPOS>MOLECULE
*****
 39 43 0 0 0
SMALL
GASTEIGER

@<TRIPOS>ATOM
      1 C          63.0305   84.7644   13.1403 C.3     1  UNL1        0.2250
      2 C          63.7192   85.6654   14.1221 C.2     1  UNL1        0.0436
      3 C          64.2225   85.1123   15.4224 C.2     1  UNL1        0.0288
      4 C          64.0371   83.6583   15.7410 C.2     1  UNL1        0.0896
      5 N          63.3484   82.7573   14.7593 N.am    1  UNL1       -0.1770
      6 C          62.8451   83.3104   13.4589 C.2     1  UNL1        0.2627
      7 O          62.1565   82.4094   12.4772 O.2     1  UNL1       -0.2719
      8 C          60.5569   87.6942    7.9538 C.2     1  UNL1        0.0332
      9 C          61.2049   86.5580    7.2198 C.2     1  UNL1        0.0101
     10 C          61.9649   85.5109    7.9788 C.2     1  UNL1        0.0255
     11 C          62.6129   84.3746    7.2447 C.3     1  UNL1        0.0351
     12 C          62.0767   85.6002    9.4720 C.2     1  UNL1        0.2278
     13 N          62.7557   84.7231   10.4818 N.2     1  UNL1       -0.0345
     14 C          62.5272   85.3173   11.8400 C.2     1  UNL1        0.3649
     15 N          61.7071   86.5617   11.6696 N.2     1  UNL1       -0.0380
     16 C          61.4286   86.7365   10.2060 C.2     1  UNL1        0.2184
     17 C          60.6687   87.7835    9.4469 C.3     1  UNL1        0.1186
     18 C          58.2772   90.8356    5.6766 C.3     1  UNL1        0.0574
     19 C          59.7748   90.8930    5.7387 C.3     1  UNL1        0.0372
     20 C          60.5347   89.8459    6.4978 C.3     1  UNL1        0.0919
     21 N          59.7969   88.7414    7.1947 N.pl3   1  UNL1       -0.3103
     22 C          58.2994   88.6839    7.1326 C.3     1  UNL1        0.0919
     23 C          57.5395   89.7310    6.3736 C.3     1  UNL1        0.0372
     24 C          56.0263   91.7815    4.7886 C.3     1  UNL1        0.0858
     25 N          57.5173   91.8827    4.9176 N.3     1  UNL1       -0.2973
     26 H          57.7139   92.7753    5.3703 H       1  UNL1        0.1233
     27 N          63.9046   87.1194   13.8036 N.pl3   1  UNL1       -0.3329
     28 H          63.7174   87.4523   12.8962 H       1  UNL1        0.1466
     29 C          64.3753   88.0662   14.8675 C.3     1  UNL1        0.1211
     30 C          63.8965   89.4877   14.8717 C.3     1  UNL1        0.1522
     31 O          63.0241   89.9820   15.9873 O.3     1  UNL1       -0.3783
     32 H          62.8660   89.2617   16.6175 H       1  UNL1        0.2109
     33 C          64.2901   90.4149   13.7602 C.ar    1  UNL1        0.0067
     34 C          65.4660   91.3308   13.9285 C.ar    1  UNL1       -0.0018
     35 C          65.8596   92.2580   12.8170 C.ar    1  UNL1        0.0006
     36 C          65.0773   92.2694   11.5372 C.ar    1  UNL1        0.0114
     37 C          63.9014   91.3535   11.3690 C.ar    1  UNL1        0.0574
     38 CL         63.1190   91.3649   10.0892 Cl      1  UNL1       -0.0823
     39 C          63.5078   90.4263   12.4804 C.ar    1  UNL1        0.0095
@<TRIPOS>BOND
     1    24    25    1
     2    25    18    1
     3    18    19    1
     4    19    20    1
     5    20    21    1
     6    21     8    1
     7     8     9    2
     8     9    10    1
     9    10    11    1
    10    10    12    2
    11    12    13    1
    12    13    14    2
    13    14     1    1
    14     1     2    1
    15     2    27    1
    16    27    29    1
    17    29    30    1
    18    30    31    1
    19    30    33    1
    20    33    34   ar
    21    34    35   ar
    22    35    36   ar
    23    36    37   ar
    24    37    38    1
    25    37    39   ar
    26     2     3    2
    27     3     4    1
    28     4     5    2
    29     5     6    1
    30     6     7    2
    31    14    15    1
    32    15    16    2
    33    16    17    1
    34    21    22    1
    35    22    23    1
    36    23    18    1
    37    17     8    1
    38    16    12    1
    39     6     1    1
    40    39    33   ar
    41    25    26    1
    42    27    28    1
    43    31    32    1
