@<TRIPOS>MOLECULE
*****
 32 36 0 0 0
SMALL
GASTEIGER

@<TRIPOS>ATOM
      1 C          61.1312   89.0215   10.8481 C.ar    1  UNL1        0.2490
      2 N          60.2626   89.8484    9.9473 N.ar    1  UNL1       -0.1863
      3 C          59.8215   89.3018    8.6219 C.ar    1  UNL1        0.2225
      4 N          60.2491   87.9282    8.1973 N.ar    1  UNL1       -0.1420
      5 N          61.1177   87.1012    9.0982 N.ar    1  UNL1       -0.2193
      6 C          61.6932   85.7239    8.9502 C.ar    1  UNL1        0.1371
      7 C          62.4900   85.4193   10.1841 C.ar    1  UNL1        0.1552
      8 C          62.4068   86.6084   11.0947 C.ar    1  UNL1        0.0359
      9 C          63.0575   86.7357   12.4402 C.3     1  UNL1        0.0360
     10 C          61.5588   87.6478   10.4236 C.ar    1  UNL1        0.1353
     11 O          61.5722   89.5681   12.1735 O.3     1  UNL1       -0.4328
     12 C          68.0121   92.9676   15.1051 C.3     1  UNL1        0.0521
     13 C          66.8581   92.4482   14.2998 C.2     1  UNL1        0.0591
     14 C          65.7656   91.5513   14.8015 C.2     1  UNL1        0.0182
     15 C          64.8263   91.2833   13.6631 C.2     1  UNL1        0.0455
     16 C          63.5710   90.4678   13.5684 C.2     1  UNL1        0.1752
     17 F          63.0589   89.7364   14.7738 F       1  UNL1       -0.2009
     18 C          62.8276   90.3836   12.2682 C.2     1  UNL1        0.1706
     19 C          63.3396   91.1149   11.0629 C.2     1  UNL1        0.0201
     20 C          64.5951   91.9305   11.1576 C.3     1  UNL1        0.0751
     21 C          65.3384   92.0146   12.4578 C.2     1  UNL1        0.0653
     22 N          66.5941   92.7346   12.8512 N.2     1  UNL1       -0.2536
     23 O          63.2384   84.1488   10.4591 O.3     1  UNL1       -0.4741
     24 C          62.7130   83.1726   11.4695 C.3     1  UNL1        0.2069
     25 C          63.6187   82.1200   12.0368 C.3     1  UNL1        0.0646
     26 C          63.8452   82.0442   13.5177 C.3     1  UNL1        0.0759
     27 N          63.8111   83.2940   14.3466 N.3     1  UNL1       -0.2726
     28 C          62.6281   83.5806   15.2231 C.3     1  UNL1        0.0721
     29 C          62.5941   84.8303   16.0519 C.3     1  UNL1        0.0174
     30 C          63.7430   85.7935   16.0042 C.3     1  UNL1        0.0029
     31 C          64.9260   85.5069   15.1277 C.3     1  UNL1        0.0174
     32 C          64.9601   84.2571   14.2988 C.3     1  UNL1        0.0721
@<TRIPOS>BOND
     1    12    13    1
     2    13    14    2
     3    14    15    1
     4    15    16    2
     5    16    17    1
     6    16    18    1
     7    18    11    1
     8    11     1    1
     9     1     2   ar
    10     2     3   ar
    11     3     4   ar
    12     4     5   ar
    13     5     6   ar
    14     6     7   ar
    15     7    23    1
    16    23    24    1
    17    24    25    1
    18    25    26    1
    19    26    27    1
    20    27    28    1
    21    28    29    1
    22    29    30    1
    23    30    31    1
    24    31    32    1
    25     7     8   ar
    26     8     9    1
    27     8    10   ar
    28    18    19    2
    29    19    20    1
    30    20    21    1
    31    21    22    2
    32    22    13    1
    33    21    15    1
    34    10     1   ar
    35    10     5   ar
    36    32    27    1
@<TRIPOS>MOLECULE
*****
 32 36 0 0 0
SMALL
GASTEIGER

@<TRIPOS>ATOM
      1 C          61.6638   89.3149   11.6578 C.ar    1  UNL1        0.2490
      2 N          60.9128   90.4402   11.0100 N.ar    1  UNL1       -0.1863
      3 C          60.1622   90.2039    9.7330 C.ar    1  UNL1        0.2225
      4 N          60.1624   88.8422    9.1039 N.ar    1  UNL1       -0.1420
      5 N          60.9134   87.7169    9.7517 N.ar    1  UNL1       -0.2193
      6 C          61.0940   86.2783    9.3673 C.ar    1  UNL1        0.1371
      7 C          61.9562   85.6255   10.4067 C.ar    1  UNL1        0.1552
      8 C          62.3085   86.6606   11.4334 C.ar    1  UNL1        0.0359
      9 C          63.1565   86.4417   12.6512 C.3     1  UNL1        0.0360
     10 C          61.6641   87.9532   11.0286 C.ar    1  UNL1        0.1353
     11 O          62.4144   89.5512   12.9348 O.3     1  UNL1       -0.4328
     12 C          68.9414   93.1949   15.3318 C.3     1  UNL1        0.0521
     13 C          67.7302   92.6522   14.6328 C.2     1  UNL1        0.0591
     14 C          66.7712   91.6410   15.1876 C.2     1  UNL1        0.0182
     15 C          65.7137   91.3891   14.1540 C.2     1  UNL1        0.0455
     16 C          64.5122   90.4913   14.1455 C.2     1  UNL1        0.1752
     17 F          64.2067   89.6357   15.3391 F       1  UNL1       -0.2009
     18 C          63.6160   90.4490   12.9433 C.2     1  UNL1        0.1706
     19 C          63.9214   91.3046   11.7497 C.2     1  UNL1        0.0201
     20 C          65.1231   92.2024   11.7582 C.3     1  UNL1        0.0751
     21 C          66.0192   92.2447   12.9604 C.2     1  UNL1        0.0653
     22 N          67.2654   93.0253   13.2563 N.2     1  UNL1       -0.2536
     23 O          62.3900   84.1896   10.4174 O.3     1  UNL1       -0.4741
     24 C          63.6514   83.7819    9.7157 C.3     1  UNL1        0.2069
     25 C          64.6992   82.9995   10.4506 C.3     1  UNL1        0.0646
     26 C          64.7186   82.9964   11.9505 C.3     1  UNL1        0.0759
     27 N          63.6220   82.3140   12.7133 N.3     1  UNL1       -0.2726
     28 C          62.9174   83.0374   13.8224 C.3     1  UNL1        0.0721
     29 C          61.8208   82.3550   14.5852 C.3     1  UNL1        0.0174
     30 C          61.4289   80.9491   14.2389 C.3     1  UNL1        0.0029
     31 C          62.1335   80.2256   13.1298 C.3     1  UNL1        0.0174
     32 C          63.2301   80.9081   12.3670 C.3     1  UNL1        0.0721
@<TRIPOS>BOND
     1    12    13    1
     2    13    14    2
     3    14    15    1
     4    15    16    2
     5    16    17    1
     6    16    18    1
     7    18    11    1
     8    11     1    1
     9     1     2   ar
    10     2     3   ar
    11     3     4   ar
    12     4     5   ar
    13     5     6   ar
    14     6     7   ar
    15     7    23    1
    16    23    24    1
    17    24    25    1
    18    25    26    1
    19    26    27    1
    20    27    28    1
    21    28    29    1
    22    29    30    1
    23    30    31    1
    24    31    32    1
    25     7     8   ar
    26     8     9    1
    27     8    10   ar
    28    18    19    2
    29    19    20    1
    30    20    21    1
    31    21    22    2
    32    22    13    1
    33    21    15    1
    34    10     1   ar
    35    10     5   ar
    36    32    27    1
@<TRIPOS>MOLECULE
*****
 32 36 0 0 0
SMALL
GASTEIGER

@<TRIPOS>ATOM
      1 C          62.5673   86.7866   11.9163 C.ar    1  UNL1        0.2490
      2 N          61.7269   86.1939   10.8243 N.ar    1  UNL1       -0.1863
      3 C          61.1139   87.0829    9.7832 C.ar    1  UNL1        0.2225
      4 N          61.3412   88.5647    9.8341 N.ar    1  UNL1       -0.1420
      5 N          62.1816   89.1574   10.9261 N.ar    1  UNL1       -0.2193
      6 C          62.5785   90.5713   11.2319 C.ar    1  UNL1        0.1371
      7 C          63.4367   90.5561   12.4620 C.ar    1  UNL1        0.1552
      8 C          63.5703   89.1328   12.9164 C.ar    1  UNL1        0.0359
      9 C          64.3438   88.6574   14.1104 C.3     1  UNL1        0.0360
     10 C          62.7946   88.2684   11.9671 C.ar    1  UNL1        0.1353
     11 O          63.1803   85.8976   12.9573 O.3     1  UNL1       -0.4328
     12 C          62.8915   78.5185   10.2948 C.3     1  UNL1        0.0521
     13 C          62.8426   79.8154   11.0470 C.2     1  UNL1        0.0591
     14 C          63.2507   81.1580   10.5171 C.2     1  UNL1        0.0182
     15 C          63.0373   82.1697   11.6038 C.2     1  UNL1        0.0455
     16 C          63.2650   83.6514   11.6544 C.2     1  UNL1        0.1752
     17 F          63.8050   84.3687   10.4528 F       1  UNL1       -0.2009
     18 C          62.9526   84.4159   12.9067 C.2     1  UNL1        0.1706
     19 C          62.4126   83.6985   14.1083 C.2     1  UNL1        0.0201
     20 C          62.1850   82.2167   14.0576 C.3     1  UNL1        0.0751
     21 C          62.4973   81.4523   12.8054 C.2     1  UNL1        0.0653
     22 N          62.3770   79.9973   12.4612 N.2     1  UNL1       -0.2536
     23 O          64.0532   91.7538   13.1218 O.3     1  UNL1       -0.4741
     24 C          65.4085   91.6465   13.7555 C.3     1  UNL1        0.2069
     25 C          66.3985   92.7629   13.6026 C.3     1  UNL1        0.0646
     26 C          66.1958   93.8052   12.5430 C.3     1  UNL1        0.0759
     27 N          66.8820   93.6691   11.2161 N.3     1  UNL1       -0.2726
     28 C          67.5551   92.3800   10.8485 C.3     1  UNL1        0.0721
     29 C          68.2413   92.2440    9.5217 C.3     1  UNL1        0.0174
     30 C          68.2544   93.3970    8.5623 C.3     1  UNL1        0.0029
     31 C          67.5812   94.6861    8.9299 C.3     1  UNL1        0.0174
     32 C          66.8950   94.8222   10.2568 C.3     1  UNL1        0.0721
@<TRIPOS>BOND
     1    12    13    1
     2    13    14    2
     3    14    15    1
     4    15    16    2
     5    16    17    1
     6    16    18    1
     7    18    11    1
     8    11     1    1
     9     1     2   ar
    10     2     3   ar
    11     3     4   ar
    12     4     5   ar
    13     5     6   ar
    14     6     7   ar
    15     7    23    1
    16    23    24    1
    17    24    25    1
    18    25    26    1
    19    26    27    1
    20    27    28    1
    21    28    29    1
    22    29    30    1
    23    30    31    1
    24    31    32    1
    25     7     8   ar
    26     8     9    1
    27     8    10   ar
    28    18    19    2
    29    19    20    1
    30    20    21    1
    31    21    22    2
    32    22    13    1
    33    21    15    1
    34    10     1   ar
    35    10     5   ar
    36    32    27    1
@<TRIPOS>MOLECULE
*****
 32 36 0 0 0
SMALL
GASTEIGER

@<TRIPOS>ATOM
      1 C          60.9071   88.6231   10.6287 C.ar    1  UNL1        0.2490
      2 N          60.0155   89.4074    9.7123 N.ar    1  UNL1       -0.1863
      3 C          59.7168   88.8933    8.3352 C.ar    1  UNL1        0.2225
      4 N          60.3098   87.5949    7.8744 N.ar    1  UNL1       -0.1420
      5 N          61.2015   86.8106    8.7907 N.ar    1  UNL1       -0.2193
      6 C          61.9244   85.5080    8.6154 C.ar    1  UNL1        0.1371
      7 C          62.6699   85.2171    9.8841 C.ar    1  UNL1        0.1552
      8 C          62.4076   86.3398   10.8436 C.ar    1  UNL1        0.0359
      9 C          62.9565   86.4572   12.2346 C.3     1  UNL1        0.0360
     10 C          61.5001   87.3247   10.1679 C.ar    1  UNL1        0.1353
     11 O          61.2057   89.1372   12.0058 O.3     1  UNL1       -0.4328
     12 C          67.0803   94.1975   10.7789 C.3     1  UNL1        0.0521
     13 C          66.0683   93.2095   11.2785 C.2     1  UNL1        0.0591
     14 C          64.9268   92.6409   10.4887 C.2     1  UNL1        0.0182
     15 C          64.1730   91.6966   11.3776 C.2     1  UNL1        0.0455
     16 C          62.9587   90.8485   11.1406 C.2     1  UNL1        0.1752
     17 F          62.2831   90.8635    9.8015 F       1  UNL1       -0.2009
     18 C          62.4200   89.9853   12.2428 C.2     1  UNL1        0.1706
     19 C          63.0956   89.9703   13.5819 C.2     1  UNL1        0.0201
     20 C          64.3100   90.8184   13.8189 C.3     1  UNL1        0.0751
     21 C          64.8486   91.6816   12.7167 C.2     1  UNL1        0.0653
     22 N          66.0199   92.6166   12.6555 N.2     1  UNL1       -0.2536
     23 O          63.5271   84.0146   10.1471 O.3     1  UNL1       -0.4741
     24 C          63.0726   82.9681   11.1209 C.3     1  UNL1        0.2069
     25 C          64.0791   82.2312   11.9540 C.3     1  UNL1        0.0646
     26 C          63.8784   82.1049   13.4352 C.3     1  UNL1        0.0759
     27 N          63.8234   83.3347   14.2922 N.3     1  UNL1       -0.2726
     28 C          64.9509   84.3234   14.2586 C.3     1  UNL1        0.0721
     29 C          64.8959   85.5532   15.1155 C.3     1  UNL1        0.0174
     30 C          63.7133   85.7945   16.0061 C.3     1  UNL1        0.0029
     31 C          62.5856   84.8058   16.0398 C.3     1  UNL1        0.0174
     32 C          62.6407   83.5760   15.1828 C.3     1  UNL1        0.0721
@<TRIPOS>BOND
     1    12    13    1
     2    13    14    2
     3    14    15    1
     4    15    16    2
     5    16    17    1
     6    16    18    1
     7    18    11    1
     8    11     1    1
     9     1     2   ar
    10     2     3   ar
    11     3     4   ar
    12     4     5   ar
    13     5     6   ar
    14     6     7   ar
    15     7    23    1
    16    23    24    1
    17    24    25    1
    18    25    26    1
    19    26    27    1
    20    27    28    1
    21    28    29    1
    22    29    30    1
    23    30    31    1
    24    31    32    1
    25     7     8   ar
    26     8     9    1
    27     8    10   ar
    28    18    19    2
    29    19    20    1
    30    20    21    1
    31    21    22    2
    32    22    13    1
    33    21    15    1
    34    10     1   ar
    35    10     5   ar
    36    32    27    1
@<TRIPOS>MOLECULE
*****
 32 36 0 0 0
SMALL
GASTEIGER

@<TRIPOS>ATOM
      1 C          62.5091   87.2528   11.6449 C.ar    1  UNL1        0.2490
      2 N          61.7218   86.7279   10.4810 N.ar    1  UNL1       -0.1863
      3 C          61.2105   87.6728    9.4342 C.ar    1  UNL1        0.2225
      4 N          61.4865   89.1425    9.5512 N.ar    1  UNL1       -0.1420
      5 N          62.2739   89.6673   10.7151 N.ar    1  UNL1       -0.2193
      6 C          62.6999   91.0545   11.0949 C.ar    1  UNL1        0.1371
      7 C          63.4744   90.9670   12.3765 C.ar    1  UNL1        0.1552
      8 C          63.5271   89.5257   12.7887 C.ar    1  UNL1        0.0359
      9 C          64.2031   88.9829   14.0128 C.3     1  UNL1        0.0360
     10 C          62.7852   88.7224   11.7619 C.ar    1  UNL1        0.1353
     11 O          63.0204   86.3079   12.6917 O.3     1  UNL1       -0.4328
     12 C          61.9975   78.5963   13.7441 C.3     1  UNL1        0.0521
     13 C          62.2941   79.9930   13.2846 C.2     1  UNL1        0.0591
     14 C          62.0634   81.2482   14.0728 C.2     1  UNL1        0.0182
     15 C          62.5002   82.4107   13.2315 C.2     1  UNL1        0.0455
     16 C          62.5067   83.8887   13.4876 C.2     1  UNL1        0.1752
     17 F          62.0060   84.4254   14.7958 F       1  UNL1       -0.2009
     18 C          63.0139   84.8300   12.4356 C.2     1  UNL1        0.1706
     19 C          63.5146   84.2933   11.1274 C.2     1  UNL1        0.0201
     20 C          63.5081   82.8152   10.8714 C.3     1  UNL1        0.0751
     21 C          63.0009   81.8740   11.9234 C.2     1  UNL1        0.0653
     22 N          62.8736   80.3798   11.9562 N.2     1  UNL1       -0.2536
     23 O          64.0884   92.1186   13.1160 O.3     1  UNL1       -0.4741
     24 C          65.3936   91.9391   13.8330 C.3     1  UNL1        0.2069
     25 C          66.4931   92.9433   13.6519 C.3     1  UNL1        0.0646
     26 C          66.3899   93.9823   12.5749 C.3     1  UNL1        0.0759
     27 N          67.0128   93.7358   11.2328 N.3     1  UNL1       -0.2726
     28 C          67.0138   94.8197   10.1959 C.3     1  UNL1        0.0721
     29 C          67.6367   94.5732    8.8538 C.3     1  UNL1        0.0174
     30 C          68.2586   93.2428    8.5486 C.3     1  UNL1        0.0029
     31 C          68.2576   92.1588    9.5855 C.3     1  UNL1        0.0174
     32 C          67.6347   92.4053   10.9276 C.3     1  UNL1        0.0721
@<TRIPOS>BOND
     1    12    13    1
     2    13    14    2
     3    14    15    1
     4    15    16    2
     5    16    17    1
     6    16    18    1
     7    18    11    1
     8    11     1    1
     9     1     2   ar
    10     2     3   ar
    11     3     4   ar
    12     4     5   ar
    13     5     6   ar
    14     6     7   ar
    15     7    23    1
    16    23    24    1
    17    24    25    1
    18    25    26    1
    19    26    27    1
    20    27    28    1
    21    28    29    1
    22    29    30    1
    23    30    31    1
    24    31    32    1
    25     7     8   ar
    26     8     9    1
    27     8    10   ar
    28    18    19    2
    29    19    20    1
    30    20    21    1
    31    21    22    2
    32    22    13    1
    33    21    15    1
    34    10     1   ar
    35    10     5   ar
    36    32    27    1
@<TRIPOS>MOLECULE
*****
 32 36 0 0 0
SMALL
GASTEIGER

@<TRIPOS>ATOM
      1 C          64.1040   91.4138   13.6084 C.ar    1  UNL1        0.2490
      2 N          65.4514   92.0727   13.6029 N.ar    1  UNL1       -0.1863
      3 C          66.0951   92.4528   12.3024 C.ar    1  UNL1        0.2225
      4 N          65.3913   92.1740   11.0075 N.ar    1  UNL1       -0.1420
      5 N          64.0439   91.5150   11.0131 N.ar    1  UNL1       -0.2193
      6 C          63.1164   91.1175    9.9032 C.ar    1  UNL1        0.1371
      7 C          61.8995   90.4917   10.5177 C.ar    1  UNL1        0.1552
      8 C          62.0749   90.5025   12.0073 C.ar    1  UNL1        0.0359
      9 C          61.0968   89.9737   13.0141 C.3     1  UNL1        0.0360
     10 C          63.4002   91.1349   12.3135 C.ar    1  UNL1        0.1353
     11 O          63.4603   91.0337   14.9089 O.3     1  UNL1       -0.4328
     12 C          64.5791   83.2639   14.9429 C.3     1  UNL1        0.0521
     13 C          64.2649   84.7074   15.2032 C.2     1  UNL1        0.0591
     14 C          64.4808   85.8429   14.2472 C.2     1  UNL1        0.0182
     15 C          64.0290   87.1061   14.9182 C.2     1  UNL1        0.0455
     16 C          64.0044   88.5336   14.4582 C.2     1  UNL1        0.1752
     17 F          64.4995   88.8884   13.0874 F       1  UNL1       -0.2009
     18 C          63.4848   89.6063   15.3689 C.2     1  UNL1        0.1706
     19 C          62.9898   89.2514   16.7397 C.2     1  UNL1        0.0201
     20 C          63.0143   87.8238   17.1997 C.3     1  UNL1        0.0751
     21 C          63.5339   86.7512   16.2890 C.2     1  UNL1        0.0653
     22 N          63.6798   85.2687   16.4651 N.2     1  UNL1       -0.2536
     23 O          60.7152   89.9503    9.7732 O.3     1  UNL1       -0.4741
     24 C          60.7880   88.5969    9.1306 C.3     1  UNL1        0.2069
     25 C          60.3065   87.3866    9.8744 C.3     1  UNL1        0.0646
     26 C          61.1469   86.7939   10.9665 C.3     1  UNL1        0.0759
     27 N          62.0580   85.6400   10.6693 N.3     1  UNL1       -0.2726
     28 C          62.3671   84.6339   11.7380 C.3     1  UNL1        0.0721
     29 C          63.2782   83.4799   11.4408 C.3     1  UNL1        0.0174
     30 C          63.8802   83.3322   10.0749 C.3     1  UNL1        0.0029
     31 C          63.5712   84.3383    9.0062 C.3     1  UNL1        0.0174
     32 C          62.6601   85.4923    9.3034 C.3     1  UNL1        0.0721
@<TRIPOS>BOND
     1    12    13    1
     2    13    14    2
     3    14    15    1
     4    15    16    2
     5    16    17    1
     6    16    18    1
     7    18    11    1
     8    11     1    1
     9     1     2   ar
    10     2     3   ar
    11     3     4   ar
    12     4     5   ar
    13     5     6   ar
    14     6     7   ar
    15     7    23    1
    16    23    24    1
    17    24    25    1
    18    25    26    1
    19    26    27    1
    20    27    28    1
    21    28    29    1
    22    29    30    1
    23    30    31    1
    24    31    32    1
    25     7     8   ar
    26     8     9    1
    27     8    10   ar
    28    18    19    2
    29    19    20    1
    30    20    21    1
    31    21    22    2
    32    22    13    1
    33    21    15    1
    34    10     1   ar
    35    10     5   ar
    36    32    27    1
@<TRIPOS>MOLECULE
*****
 32 36 0 0 0
SMALL
GASTEIGER

@<TRIPOS>ATOM
      1 C          61.5829   89.4677   11.7536 C.ar    1  UNL1        0.2490
      2 N          60.7227   90.5636   11.1978 N.ar    1  UNL1       -0.1863
      3 C          59.8346   90.2952   10.0191 C.ar    1  UNL1        0.2225
      4 N          59.8067   88.9309    9.3963 N.ar    1  UNL1       -0.1420
      5 N          60.6670   87.8351    9.9521 N.ar    1  UNL1       -0.2193
      6 C          60.8496   86.4012    9.5511 C.ar    1  UNL1        0.1371
      7 C          61.8506   85.7835   10.4819 C.ar    1  UNL1        0.1552
      8 C          62.2866   86.8355   11.4581 C.ar    1  UNL1        0.0359
      9 C          63.2798   86.6519   12.5672 C.3     1  UNL1        0.0360
     10 C          61.5551   88.1035   11.1307 C.ar    1  UNL1        0.1353
     11 O          62.4711   89.7361   12.9322 O.3     1  UNL1       -0.4328
     12 C          67.6141   94.7869    9.8238 C.3     1  UNL1        0.0521
     13 C          66.7742   93.8702   10.6630 C.2     1  UNL1        0.0591
     14 C          65.6102   93.0547   10.1833 C.2     1  UNL1        0.0182
     15 C          65.0674   92.2886   11.3532 C.2     1  UNL1        0.0455
     16 C          63.9258   91.3238   11.4786 C.2     1  UNL1        0.1752
     17 F          63.0973   90.9818   10.2759 F       1  UNL1       -0.2009
     18 C          63.6127   90.7009   12.8068 C.2     1  UNL1        0.1706
     19 C          64.4412   91.0430   14.0095 C.2     1  UNL1        0.0201
     20 C          65.5829   92.0079   13.8841 C.3     1  UNL1        0.0751
     21 C          65.8960   92.6307   12.5559 C.2     1  UNL1        0.0653
     22 N          66.9508   93.6081   12.1294 N.2     1  UNL1       -0.2536
     23 O          62.3312   84.3631   10.4432 O.3     1  UNL1       -0.4741
     24 C          63.5415   84.0026    9.6337 C.3     1  UNL1        0.2069
     25 C          64.5051   82.9722   10.1434 C.3     1  UNL1        0.0646
     26 C          64.0450   81.9361   11.1257 C.3     1  UNL1        0.0759
     27 N          63.6075   82.3477   12.5002 N.3     1  UNL1       -0.2726
     28 C          62.3658   81.7577   13.1001 C.3     1  UNL1        0.0721
     29 C          61.9283   82.1693   14.4746 C.3     1  UNL1        0.0174
     30 C          62.7325   83.1710   15.2491 C.3     1  UNL1        0.0029
     31 C          63.9743   83.7610   14.6492 C.3     1  UNL1        0.0174
     32 C          64.4118   83.3494   13.2747 C.3     1  UNL1        0.0721
@<TRIPOS>BOND
     1    12    13    1
     2    13    14    2
     3    14    15    1
     4    15    16    2
     5    16    17    1
     6    16    18    1
     7    18    11    1
     8    11     1    1
     9     1     2   ar
    10     2     3   ar
    11     3     4   ar
    12     4     5   ar
    13     5     6   ar
    14     6     7   ar
    15     7    23    1
    16    23    24    1
    17    24    25    1
    18    25    26    1
    19    26    27    1
    20    27    28    1
    21    28    29    1
    22    29    30    1
    23    30    31    1
    24    31    32    1
    25     7     8   ar
    26     8     9    1
    27     8    10   ar
    28    18    19    2
    29    19    20    1
    30    20    21    1
    31    21    22    2
    32    22    13    1
    33    21    15    1
    34    10     1   ar
    35    10     5   ar
    36    32    27    1
@<TRIPOS>MOLECULE
*****
 32 36 0 0 0
SMALL
GASTEIGER

@<TRIPOS>ATOM
      1 C          63.2876   86.4857   15.2038 C.ar    1  UNL1        0.2490
      2 N          62.8933   85.5426   16.3016 N.ar    1  UNL1       -0.1863
      3 C          62.6649   86.0616   17.6902 C.ar    1  UNL1        0.2225
      4 N          62.8307   87.5237   17.9812 N.ar    1  UNL1       -0.1420
      5 N          63.2250   88.4668   16.8835 N.ar    1  UNL1       -0.2193
      6 C          63.4620   89.9479   16.8695 C.ar    1  UNL1        0.1371
      7 C          63.8370   90.3443   15.4723 C.ar    1  UNL1        0.1552
      8 C          63.8317   89.1081   14.6227 C.ar    1  UNL1        0.0359
      9 C          64.1489   89.0436   13.1580 C.3     1  UNL1        0.0360
     10 C          63.4535   87.9478   15.4948 C.ar    1  UNL1        0.1353
     11 O          63.5161   85.9667   13.8152 O.3     1  UNL1       -0.4328
     12 C          62.8256   79.2337    9.8385 C.3     1  UNL1        0.0521
     13 C          62.9053   80.3568   10.8296 C.2     1  UNL1        0.0591
     14 C          63.1796   81.7966   10.5105 C.2     1  UNL1        0.0182
     15 C          63.1685   82.5669   11.7975 C.2     1  UNL1        0.0455
     16 C          63.3781   84.0214   12.0985 C.2     1  UNL1        0.1752
     17 F          63.6591   84.9850   10.9839 F       1  UNL1       -0.2009
     18 C          63.3065   84.5122   13.5142 C.2     1  UNL1        0.1706
     19 C          63.0255   83.5485   14.6288 C.2     1  UNL1        0.0201
     20 C          62.8159   82.0940   14.3277 C.3     1  UNL1        0.0751
     21 C          62.8874   81.6033   12.9121 C.2     1  UNL1        0.0653
     22 N          62.7248   80.2374   12.3139 N.2     1  UNL1       -0.2536
     23 O          64.1604   91.7329   15.0065 O.3     1  UNL1       -0.4741
     24 C          65.5884   92.1860   14.9335 C.3     1  UNL1        0.2069
     25 C          66.2893   92.2467   13.6087 C.3     1  UNL1        0.0646
     26 C          66.1230   93.4485   12.7266 C.3     1  UNL1        0.0759
     27 N          66.8186   93.5064   11.3989 N.3     1  UNL1       -0.2726
     28 C          66.8187   94.7803   10.6071 C.3     1  UNL1        0.0721
     29 C          67.5143   94.8382    9.2794 C.3     1  UNL1        0.0174
     30 C          68.2097   93.6220    8.7435 C.3     1  UNL1        0.0029
     31 C          68.2096   92.3480    9.5352 C.3     1  UNL1        0.0174
     32 C          67.5140   92.2901   10.8629 C.3     1  UNL1        0.0721
@<TRIPOS>BOND
     1    12    13    1
     2    13    14    2
     3    14    15    1
     4    15    16    2
     5    16    17    1
     6    16    18    1
     7    18    11    1
     8    11     1    1
     9     1     2   ar
    10     2     3   ar
    11     3     4   ar
    12     4     5   ar
    13     5     6   ar
    14     6     7   ar
    15     7    23    1
    16    23    24    1
    17    24    25    1
    18    25    26    1
    19    26    27    1
    20    27    28    1
    21    28    29    1
    22    29    30    1
    23    30    31    1
    24    31    32    1
    25     7     8   ar
    26     8     9    1
    27     8    10   ar
    28    18    19    2
    29    19    20    1
    30    20    21    1
    31    21    22    2
    32    22    13    1
    33    21    15    1
    34    10     1   ar
    35    10     5   ar
    36    32    27    1
@<TRIPOS>MOLECULE
*****
 32 36 0 0 0
SMALL
GASTEIGER

@<TRIPOS>ATOM
      1 C          63.0710   88.4945   12.9420 C.ar    1  UNL1        0.2490
      2 N          63.7773   87.8568   14.1015 N.ar    1  UNL1       -0.1863
      3 C          63.9741   86.3701   14.1342 C.ar    1  UNL1        0.2225
      4 N          63.4647   85.5212   13.0074 N.ar    1  UNL1       -0.1420
      5 N          62.7585   86.1588   11.8479 N.ar    1  UNL1       -0.2193
      6 C          62.1517   85.5834   10.6026 C.ar    1  UNL1        0.1371
      7 C          61.5799   86.7145    9.8002 C.ar    1  UNL1        0.1552
      8 C          61.8332   87.9889   10.5497 C.ar    1  UNL1        0.0359
      9 C          61.4292   89.3651   10.1107 C.3     1  UNL1        0.0360
     10 C          62.5616   87.6455   11.8152 C.ar    1  UNL1        0.1353
     11 O          62.8742   89.9812   12.9093 O.3     1  UNL1       -0.4328
     12 C          68.7913   94.0112   16.1294 C.3     1  UNL1        0.0521
     13 C          67.7460   93.3657   15.2689 C.2     1  UNL1        0.0591
     14 C          66.6888   92.4087   15.7341 C.2     1  UNL1        0.0182
     15 C          65.8637   92.0153   14.5448 C.2     1  UNL1        0.0455
     16 C          64.6848   91.0993   14.3998 C.2     1  UNL1        0.1752
     17 F          64.1375   90.3854   15.6001 F       1  UNL1       -0.2009
     18 C          64.0531   90.8972   13.0543 C.2     1  UNL1        0.1706
     19 C          64.6004   91.6111   11.8540 C.2     1  UNL1        0.0201
     20 C          65.7793   92.5271   11.9991 C.3     1  UNL1        0.0751
     21 C          66.4110   92.7292   13.3445 C.2     1  UNL1        0.0653
     22 N          67.5743   93.5638   13.7920 N.2     1  UNL1       -0.2536
     23 O          60.8780   86.5925    8.4802 O.3     1  UNL1       -0.4741
     24 C          59.4212   86.9327    8.3711 C.3     1  UNL1        0.2069
     25 C          58.9982   88.2251    7.7381 C.3     1  UNL1        0.0646
     26 C          59.9449   88.9660    6.8409 C.3     1  UNL1        0.0759
     27 N          59.4371   90.0728    5.9651 N.3     1  UNL1       -0.2726
     28 C          57.9648   90.3471    5.8809 C.3     1  UNL1        0.0721
     29 C          57.4570   91.4539    5.0051 C.3     1  UNL1        0.0174
     30 C          58.4214   92.2865    4.2136 C.3     1  UNL1        0.0029
     31 C          59.8938   92.0123    4.2978 C.3     1  UNL1        0.0174
     32 C          60.4016   90.9054    5.1736 C.3     1  UNL1        0.0721
@<TRIPOS>BOND
     1    12    13    1
     2    13    14    2
     3    14    15    1
     4    15    16    2
     5    16    17    1
     6    16    18    1
     7    18    11    1
     8    11     1    1
     9     1     2   ar
    10     2     3   ar
    11     3     4   ar
    12     4     5   ar
    13     5     6   ar
    14     6     7   ar
    15     7    23    1
    16    23    24    1
    17    24    25    1
    18    25    26    1
    19    26    27    1
    20    27    28    1
    21    28    29    1
    22    29    30    1
    23    30    31    1
    24    31    32    1
    25     7     8   ar
    26     8     9    1
    27     8    10   ar
    28    18    19    2
    29    19    20    1
    30    20    21    1
    31    21    22    2
    32    22    13    1
    33    21    15    1
    34    10     1   ar
    35    10     5   ar
    36    32    27    1
