@<TRIPOS>MOLECULE
*****
 33 36 0 0 0
SMALL
GASTEIGER

@<TRIPOS>ATOM
      1 O          65.0248   92.9209   12.0601 O.2     1  UNL1       -0.2742
      2 C          64.6535   91.6168   12.7019 C.2     1  UNL1        0.2335
      3 N          63.6683   90.7052   12.0325 N.am    1  UNL1       -0.2762
      4 C          63.2971   89.4011   12.6742 C.3     1  UNL1        0.1108
      5 C          62.3119   88.4895   12.0048 C.3     1  UNL1        0.0942
      6 N          61.6978   88.8817   10.6936 N.3     1  UNL1       -0.2660
      7 C          62.0690   90.1857   10.0519 C.3     1  UNL1        0.0942
      8 C          63.0543   91.0975   10.7213 C.3     1  UNL1        0.1108
      9 C          65.2676   91.2246   14.0130 C.3     1  UNL1        0.1226
     10 C          64.6017   90.1924   14.8741 C.ar    1  UNL1       -0.0097
     11 C          64.8647   88.7348   14.6368 C.ar    1  UNL1       -0.0026
     12 C          64.1989   87.7028   15.4979 C.ar    1  UNL1        0.0111
     13 C          63.2700   88.1282   16.5961 C.ar    1  UNL1        0.0577
     14 CL         62.6041   87.0961   17.4572 Cl      1  UNL1       -0.0822
     15 C          63.0070   89.5858   16.8333 C.ar    1  UNL1        0.0111
     16 C          63.6728   90.6179   15.9723 C.ar    1  UNL1       -0.0026
     17 C          66.5474   91.8644   14.4631 C.ar    1  UNL1        0.0094
     18 C          66.5962   92.6102   15.7636 C.ar    1  UNL1       -0.0004
     19 C          67.8761   93.2501   16.2137 C.ar    1  UNL1        0.0204
     20 C          69.1071   93.1440   15.3633 C.ar    1  UNL1        0.0989
     21 N          69.0583   92.3982   14.0628 N.ar    1  UNL1       -0.2426
     22 C          67.7785   91.7584   13.6127 C.ar    1  UNL1        0.0954
     23 C          60.7126   87.9701   10.0242 C.3     1  UNL1        0.0992
     24 C          61.1928   86.9209    9.0656 C.ar    1  UNL1       -0.0022
     25 C          62.4226   86.1225    9.3820 C.ar    1  UNL1       -0.0030
     26 C          62.9029   85.0734    8.4235 C.ar    1  UNL1       -0.0003
     27 C          62.1533   84.8228    7.1486 C.ar    1  UNL1       -0.0001
     28 C          60.9235   85.6213    6.8323 C.ar    1  UNL1        0.0036
     29 C          60.4433   86.6703    7.7908 C.ar    1  UNL1        0.0688
     30 C          59.2135   87.4688    7.4745 C.3     1  UNL1        0.4183
     31 F          57.9837   88.2672    7.1581 F       1  UNL1       -0.1659
     32 F          58.3551   86.3072    7.8794 F       1  UNL1       -0.1659
     33 F          60.0718   88.6304    7.0696 F       1  UNL1       -0.1659
@<TRIPOS>BOND
     1     1     2    2
     2     2     9    1
     3     9    10    1
     4    10    11   ar
     5    11    12   ar
     6    12    13   ar
     7    13    14    1
     8    13    15   ar
     9    15    16   ar
    10     9    17    1
    11    17    18   ar
    12    18    19   ar
    13    19    20   ar
    14    20    21   ar
    15    21    22   ar
    16     2     3   am
    17     3     4    1
    18     4     5    1
    19     5     6    1
    20     6    23    1
    21    23    24    1
    22    24    25   ar
    23    25    26   ar
    24    26    27   ar
    25    27    28   ar
    26    28    29   ar
    27    29    30    1
    28    30    31    1
    29    30    32    1
    30    30    33    1
    31     6     7    1
    32     7     8    1
    33    16    10   ar
    34    22    17   ar
    35     8     3    1
    36    29    24   ar
@<TRIPOS>MOLECULE
*****
 33 36 0 0 0
SMALL
GASTEIGER

@<TRIPOS>ATOM
      1 O          63.1380   89.9688   16.9537 O.2     1  UNL1       -0.2742
      2 C          63.7010   89.4342   15.6702 C.2     1  UNL1        0.2335
      3 N          63.7218   87.9556   15.4187 N.am    1  UNL1       -0.2762
      4 C          64.2848   87.4209   14.1352 C.3     1  UNL1        0.1108
      5 C          64.3056   85.9423   13.8837 C.3     1  UNL1        0.0942
      6 N          63.7634   84.9983   14.9157 N.3     1  UNL1       -0.2660
      7 C          63.2004   85.5329   16.1991 C.3     1  UNL1        0.0942
      8 C          63.1796   87.0116   16.4506 C.3     1  UNL1        0.1108
      9 C          64.2432   90.3782   14.6382 C.3     1  UNL1        0.1226
     10 C          65.4598   91.2019   14.9408 C.ar    1  UNL1       -0.0097
     11 C          66.7123   91.0128   14.1375 C.ar    1  UNL1       -0.0026
     12 C          67.9288   91.8365   14.4400 C.ar    1  UNL1        0.0111
     13 C          67.8928   92.8493   15.5459 C.ar    1  UNL1        0.0577
     14 CL         69.1094   93.6730   15.8485 Cl      1  UNL1       -0.0822
     15 C          66.6403   93.0383   16.3493 C.ar    1  UNL1        0.0111
     16 C          65.4238   92.2146   16.0467 C.ar    1  UNL1       -0.0026
     17 C          63.5688   90.4985   13.3038 C.ar    1  UNL1        0.0094
     18 C          64.2389   91.2465   12.1896 C.ar    1  UNL1       -0.0004
     19 C          63.5645   91.3668   10.8551 C.ar    1  UNL1        0.0204
     20 C          62.2201   90.7391   10.6349 C.ar    1  UNL1        0.0989
     21 N          61.5500   89.9911   11.7491 N.ar    1  UNL1       -0.2426
     22 C          62.2244   89.8708   13.0836 C.ar    1  UNL1        0.0954
     23 C          63.7842   83.5197   14.6642 C.3     1  UNL1        0.0992
     24 C          63.7672   82.9978   13.2580 C.ar    1  UNL1       -0.0022
     25 C          64.7060   83.5665   12.2355 C.ar    1  UNL1       -0.0030
     26 C          64.6890   83.0446   10.8294 C.ar    1  UNL1       -0.0003
     27 C          63.7333   81.9540   10.4457 C.ar    1  UNL1       -0.0001
     28 C          62.7946   81.3853   11.4681 C.ar    1  UNL1        0.0036
     29 C          62.8116   81.9072   12.8743 C.ar    1  UNL1        0.0688
     30 C          61.8728   81.3385   13.8967 C.3     1  UNL1        0.4183
     31 F          60.9341   80.7698   14.9191 F       1  UNL1       -0.1659
     32 F          61.3489   82.7149   14.1813 F       1  UNL1       -0.1659
     33 F          62.3967   79.9621   13.6121 F       1  UNL1       -0.1659
@<TRIPOS>BOND
     1     1     2    2
     2     2     9    1
     3     9    10    1
     4    10    11   ar
     5    11    12   ar
     6    12    13   ar
     7    13    14    1
     8    13    15   ar
     9    15    16   ar
    10     9    17    1
    11    17    18   ar
    12    18    19   ar
    13    19    20   ar
    14    20    21   ar
    15    21    22   ar
    16     2     3   am
    17     3     4    1
    18     4     5    1
    19     5     6    1
    20     6    23    1
    21    23    24    1
    22    24    25   ar
    23    25    26   ar
    24    26    27   ar
    25    27    28   ar
    26    28    29   ar
    27    29    30    1
    28    30    31    1
    29    30    32    1
    30    30    33    1
    31     6     7    1
    32     7     8    1
    33    16    10   ar
    34    22    17   ar
    35     8     3    1
    36    29    24   ar
@<TRIPOS>MOLECULE
*****
 33 36 0 0 0
SMALL
GASTEIGER

@<TRIPOS>ATOM
      1 O          65.9863   92.3718   11.6079 O.2     1  UNL1       -0.2742
      2 C          65.0907   91.5833   12.5169 C.2     1  UNL1        0.2335
      3 N          63.8168   90.9938   11.9880 N.am    1  UNL1       -0.2762
      4 C          62.9212   90.2053   12.8970 C.3     1  UNL1        0.1108
      5 C          61.6473   89.6158   12.3681 C.3     1  UNL1        0.0942
      6 N          61.2690   89.8148   10.9303 N.3     1  UNL1       -0.2660
      7 C          62.1646   90.6032   10.0214 C.3     1  UNL1        0.0942
      8 C          63.4385   91.1928   10.5502 C.3     1  UNL1        0.1108
      9 C          65.4690   91.3843   13.9547 C.3     1  UNL1        0.1226
     10 C          64.7320   90.3816   14.7923 C.ar    1  UNL1       -0.0097
     11 C          64.8289   88.9197   14.4707 C.ar    1  UNL1       -0.0026
     12 C          64.0920   87.9171   15.3082 C.ar    1  UNL1        0.0111
     13 C          63.2580   88.3764   16.4674 C.ar    1  UNL1        0.0577
     14 CL         62.5211   87.3736   17.3050 Cl      1  UNL1       -0.0822
     15 C          63.1611   89.8382   16.7890 C.ar    1  UNL1        0.0111
     16 C          63.8980   90.8409   15.9514 C.ar    1  UNL1       -0.0026
     17 C          66.5842   92.1880   14.5549 C.ar    1  UNL1        0.0094
     18 C          67.6439   91.5083   15.3704 C.ar    1  UNL1       -0.0004
     19 C          68.7591   92.3121   15.9707 C.ar    1  UNL1        0.0204
     20 C          68.8146   93.7955   15.7554 C.ar    1  UNL1        0.0989
     21 N          67.7549   94.4752   14.9399 N.ar    1  UNL1       -0.2426
     22 C          66.6397   93.6715   14.3397 C.ar    1  UNL1        0.0954
     23 C          59.9951   89.2253   10.4015 C.3     1  UNL1        0.0992
     24 C          60.0440   88.1176    9.3911 C.ar    1  UNL1       -0.0022
     25 C          59.1207   88.1393    8.2092 C.ar    1  UNL1       -0.0030
     26 C          59.1696   87.0317    7.1988 C.ar    1  UNL1       -0.0003
     27 C          60.1417   85.9024    7.3705 C.ar    1  UNL1       -0.0001
     28 C          61.0650   85.8807    8.5525 C.ar    1  UNL1        0.0036
     29 C          61.0162   86.9883    9.5628 C.ar    1  UNL1        0.0688
     30 C          61.9395   86.9665   10.7447 C.3     1  UNL1        0.4183
     31 F          62.8628   86.9448   11.9267 F       1  UNL1       -0.1659
     32 F          62.9930   87.6620    9.9346 F       1  UNL1       -0.1659
     33 F          60.8859   86.2711   11.5549 F       1  UNL1       -0.1659
@<TRIPOS>BOND
     1     1     2    2
     2     2     9    1
     3     9    10    1
     4    10    11   ar
     5    11    12   ar
     6    12    13   ar
     7    13    14    1
     8    13    15   ar
     9    15    16   ar
    10     9    17    1
    11    17    18   ar
    12    18    19   ar
    13    19    20   ar
    14    20    21   ar
    15    21    22   ar
    16     2     3   am
    17     3     4    1
    18     4     5    1
    19     5     6    1
    20     6    23    1
    21    23    24    1
    22    24    25   ar
    23    25    26   ar
    24    26    27   ar
    25    27    28   ar
    26    28    29   ar
    27    29    30    1
    28    30    31    1
    29    30    32    1
    30    30    33    1
    31     6     7    1
    32     7     8    1
    33    16    10   ar
    34    22    17   ar
    35     8     3    1
    36    29    24   ar
@<TRIPOS>MOLECULE
*****
 33 36 0 0 0
SMALL
GASTEIGER

@<TRIPOS>ATOM
      1 O          64.3246   90.2067   15.1753 O.2     1  UNL1       -0.2742
      2 C          63.9069   89.4678   13.9385 C.2     1  UNL1        0.2335
      3 N          63.8549   87.9688   13.9419 N.am    1  UNL1       -0.2762
      4 C          63.4372   87.2299   12.7051 C.3     1  UNL1        0.1108
      5 C          63.3852   85.7309   12.7086 C.3     1  UNL1        0.0942
      6 N          63.7510   84.9706   13.9488 N.3     1  UNL1       -0.2660
      7 C          64.1687   85.7093   15.1856 C.3     1  UNL1        0.0942
      8 C          64.2207   87.2085   15.1822 C.3     1  UNL1        0.1108
      9 C          63.5412   90.2281   12.6983 C.3     1  UNL1        0.1226
     10 C          64.3698   91.4015   12.2661 C.ar    1  UNL1       -0.0097
     11 C          65.2854   92.0743   13.2453 C.ar    1  UNL1       -0.0026
     12 C          66.1140   93.2476   12.8131 C.ar    1  UNL1        0.0111
     13 C          66.0270   93.7480   11.4017 C.ar    1  UNL1        0.0577
     14 CL         66.8557   94.9213   10.9695 Cl      1  UNL1       -0.0822
     15 C          65.1114   93.0751   10.4225 C.ar    1  UNL1        0.0111
     16 C          64.2828   91.9019   10.8547 C.ar    1  UNL1       -0.0026
     17 C          62.3468   89.8152   11.8902 C.ar    1  UNL1        0.0094
     18 C          62.5082   89.4566   10.4427 C.ar    1  UNL1       -0.0004
     19 C          61.3138   89.0436    9.6346 C.ar    1  UNL1        0.0204
     20 C          59.9581   88.9892   10.2741 C.ar    1  UNL1        0.0989
     21 N          59.7967   89.3478   11.7217 N.ar    1  UNL1       -0.2426
     22 C          60.9910   89.7607   12.5297 C.ar    1  UNL1        0.0954
     23 C          63.6990   83.4715   13.9522 C.3     1  UNL1        0.0992
     24 C          63.6698   82.7191   12.6549 C.ar    1  UNL1       -0.0022
     25 C          64.4548   83.2206   11.4792 C.ar    1  UNL1       -0.0030
     26 C          64.4256   82.4682   10.1819 C.ar    1  UNL1       -0.0003
     27 C          63.6115   81.2143   10.0603 C.ar    1  UNL1       -0.0001
     28 C          62.8266   80.7127   11.2360 C.ar    1  UNL1        0.0036
     29 C          62.8558   81.4651   12.5333 C.ar    1  UNL1        0.0688
     30 C          62.0708   80.9635   13.7090 C.3     1  UNL1        0.4183
     31 F          61.2859   80.4619   14.8847 F       1  UNL1       -0.1659
     32 F          63.2967   80.2773   14.2347 F       1  UNL1       -0.1659
     33 F          60.8449   81.6497   13.1833 F       1  UNL1       -0.1659
@<TRIPOS>BOND
     1     1     2    2
     2     2     9    1
     3     9    10    1
     4    10    11   ar
     5    11    12   ar
     6    12    13   ar
     7    13    14    1
     8    13    15   ar
     9    15    16   ar
    10     9    17    1
    11    17    18   ar
    12    18    19   ar
    13    19    20   ar
    14    20    21   ar
    15    21    22   ar
    16     2     3   am
    17     3     4    1
    18     4     5    1
    19     5     6    1
    20     6    23    1
    21    23    24    1
    22    24    25   ar
    23    25    26   ar
    24    26    27   ar
    25    27    28   ar
    26    28    29   ar
    27    29    30    1
    28    30    31    1
    29    30    32    1
    30    30    33    1
    31     6     7    1
    32     7     8    1
    33    16    10   ar
    34    22    17   ar
    35     8     3    1
    36    29    24   ar
@<TRIPOS>MOLECULE
*****
 33 36 0 0 0
SMALL
GASTEIGER

@<TRIPOS>ATOM
      1 O          64.4865   84.4780   14.8028 O.2     1  UNL1       -0.2742
      2 C          63.7632   85.1870   13.6963 C.2     1  UNL1        0.2335
      3 N          63.7983   86.6844   13.6161 N.am    1  UNL1       -0.2762
      4 C          63.0750   87.3933   12.5095 C.3     1  UNL1        0.1108
      5 C          63.1101   88.8908   12.4293 C.3     1  UNL1        0.0942
      6 N          63.8684   89.6793   13.4556 N.3     1  UNL1       -0.2660
      7 C          64.5916   88.9704   14.5620 C.3     1  UNL1        0.0942
      8 C          64.5566   87.4729   14.6423 C.3     1  UNL1        0.1108
      9 C          63.0049   84.3984   12.6700 C.3     1  UNL1        0.1226
     10 C          62.4944   85.0741   11.4319 C.ar    1  UNL1       -0.0097
     11 C          63.2145   84.8948   10.1284 C.ar    1  UNL1       -0.0026
     12 C          62.7040   85.5704    8.8904 C.ar    1  UNL1        0.0111
     13 C          61.4732   86.4254    8.9558 C.ar    1  UNL1        0.0577
     14 CL         60.9627   87.1011    7.7177 Cl      1  UNL1       -0.0822
     15 C          60.7531   86.6048   10.2593 C.ar    1  UNL1        0.0111
     16 C          61.2636   85.9291   11.4974 C.ar    1  UNL1       -0.0026
     17 C          62.7571   82.9343   12.8818 C.ar    1  UNL1        0.0094
     18 C          63.0837   81.9534   11.7950 C.ar    1  UNL1       -0.0004
     19 C          62.8359   80.4893   12.0069 C.ar    1  UNL1        0.0204
     20 C          62.2616   80.0060   13.3055 C.ar    1  UNL1        0.0989
     21 N          61.9350   80.9869   14.3924 N.ar    1  UNL1       -0.2426
     22 C          62.1827   82.4510   14.1805 C.ar    1  UNL1        0.0954
     23 C          63.9035   91.1767   13.3753 C.3     1  UNL1        0.0992
     24 C          64.9034   91.8570   12.4880 C.ar    1  UNL1       -0.0022
     25 C          64.6072   92.0435   11.0294 C.ar    1  UNL1       -0.0030
     26 C          65.6071   92.7238   10.1420 C.ar    1  UNL1       -0.0003
     27 C          66.9031   93.2177   10.7133 C.ar    1  UNL1       -0.0001
     28 C          67.1993   93.0312   12.1719 C.ar    1  UNL1        0.0036
     29 C          66.1994   92.3509   13.0592 C.ar    1  UNL1        0.0688
     30 C          66.4956   92.1645   14.5178 C.3     1  UNL1        0.4183
     31 F          66.7917   91.9781   15.9764 F       1  UNL1       -0.1659
     32 F          65.8485   93.4841   14.8179 F       1  UNL1       -0.1659
     33 F          67.1426   90.8449   14.2178 F       1  UNL1       -0.1659
@<TRIPOS>BOND
     1     1     2    2
     2     2     9    1
     3     9    10    1
     4    10    11   ar
     5    11    12   ar
     6    12    13   ar
     7    13    14    1
     8    13    15   ar
     9    15    16   ar
    10     9    17    1
    11    17    18   ar
    12    18    19   ar
    13    19    20   ar
    14    20    21   ar
    15    21    22   ar
    16     2     3   am
    17     3     4    1
    18     4     5    1
    19     5     6    1
    20     6    23    1
    21    23    24    1
    22    24    25   ar
    23    25    26   ar
    24    26    27   ar
    25    27    28   ar
    26    28    29   ar
    27    29    30    1
    28    30    31    1
    29    30    32    1
    30    30    33    1
    31     6     7    1
    32     7     8    1
    33    16    10   ar
    34    22    17   ar
    35     8     3    1
    36    29    24   ar
@<TRIPOS>MOLECULE
*****
 33 36 0 0 0
SMALL
GASTEIGER

@<TRIPOS>ATOM
      1 O          64.9649   92.7279   12.0219 O.2     1  UNL1       -0.2742
      2 C          64.5720   91.4457   12.6941 C.2     1  UNL1        0.2335
      3 N          63.5976   90.5187   12.0299 N.am    1  UNL1       -0.2762
      4 C          63.2047   89.2365   12.7020 C.3     1  UNL1        0.1108
      5 C          62.2303   88.3095   12.0378 C.3     1  UNL1        0.0942
      6 N          61.6489   88.6646   10.7014 N.3     1  UNL1       -0.2660
      7 C          62.0418   89.9466   10.0293 C.3     1  UNL1        0.0942
      8 C          63.0162   90.8737   10.6935 C.3     1  UNL1        0.1108
      9 C          65.1534   91.0907   14.0305 C.3     1  UNL1        0.1226
     10 C          66.3817   91.7954   14.5251 C.ar    1  UNL1       -0.0097
     11 C          66.3189   92.6254   15.7730 C.ar    1  UNL1       -0.0026
     12 C          67.5471   93.3301   16.2676 C.ar    1  UNL1        0.0111
     13 C          68.8383   93.2049   15.5143 C.ar    1  UNL1        0.0577
     14 CL         70.0666   93.9096   16.0090 Cl      1  UNL1       -0.0822
     15 C          68.9011   92.3749   14.2665 C.ar    1  UNL1        0.0111
     16 C          67.6728   91.6702   13.7719 C.ar    1  UNL1       -0.0026
     17 C          64.5066   90.0309   14.8722 C.ar    1  UNL1        0.0094
     18 C          63.5940   90.4200   15.9973 C.ar    1  UNL1       -0.0004
     19 C          62.9472   89.3601   16.8390 C.ar    1  UNL1        0.0204
     20 C          63.2129   87.9113   16.5556 C.ar    1  UNL1        0.0989
     21 N          64.1254   87.5223   15.4304 N.ar    1  UNL1       -0.2426
     22 C          64.7723   88.5821   14.5887 C.ar    1  UNL1        0.0954
     23 C          60.6746   87.7375   10.0372 C.3     1  UNL1        0.0992
     24 C          61.1570   86.7445    9.0217 C.ar    1  UNL1       -0.0022
     25 C          62.3764   85.9171    9.3023 C.ar    1  UNL1       -0.0030
     26 C          62.8588   84.9241    8.2868 C.ar    1  UNL1       -0.0003
     27 C          62.1219   84.7585    6.9909 C.ar    1  UNL1       -0.0001
     28 C          60.9026   85.5858    6.7104 C.ar    1  UNL1        0.0036
     29 C          60.4201   86.5788    7.7258 C.ar    1  UNL1        0.0688
     30 C          59.2008   87.4062    7.4453 C.3     1  UNL1        0.4183
     31 F          57.9815   88.2335    7.1647 F       1  UNL1       -0.1659
     32 F          58.3272   86.2561    7.8505 F       1  UNL1       -0.1659
     33 F          60.0744   88.5562    7.0400 F       1  UNL1       -0.1659
@<TRIPOS>BOND
     1     1     2    2
     2     2     9    1
     3     9    10    1
     4    10    11   ar
     5    11    12   ar
     6    12    13   ar
     7    13    14    1
     8    13    15   ar
     9    15    16   ar
    10     9    17    1
    11    17    18   ar
    12    18    19   ar
    13    19    20   ar
    14    20    21   ar
    15    21    22   ar
    16     2     3   am
    17     3     4    1
    18     4     5    1
    19     5     6    1
    20     6    23    1
    21    23    24    1
    22    24    25   ar
    23    25    26   ar
    24    26    27   ar
    25    27    28   ar
    26    28    29   ar
    27    29    30    1
    28    30    31    1
    29    30    32    1
    30    30    33    1
    31     6     7    1
    32     7     8    1
    33    16    10   ar
    34    22    17   ar
    35     8     3    1
    36    29    24   ar
@<TRIPOS>MOLECULE
*****
 33 36 0 0 0
SMALL
GASTEIGER

@<TRIPOS>ATOM
      1 O          64.3800   84.6312   14.7944 O.2     1  UNL1       -0.2742
      2 C          63.7088   85.3320   13.6505 C.2     1  UNL1        0.2335
      3 N          63.7585   86.8281   13.5543 N.am    1  UNL1       -0.2762
      4 C          63.0873   87.5289   12.4105 C.3     1  UNL1        0.1108
      5 C          63.1371   89.0249   12.3143 C.3     1  UNL1        0.0942
      6 N          63.8581   89.8203   13.3620 N.3     1  UNL1       -0.2660
      7 C          64.5293   89.1195   14.5058 C.3     1  UNL1        0.0942
      8 C          64.4796   87.6234   14.6020 C.3     1  UNL1        0.1108
      9 C          62.9877   84.5367   12.6029 C.3     1  UNL1        0.1226
     10 C          62.7328   83.0738   12.8151 C.ar    1  UNL1       -0.0097
     11 C          62.0340   82.6067   14.0574 C.ar    1  UNL1       -0.0026
     12 C          61.7791   81.1439   14.2696 C.ar    1  UNL1        0.0111
     13 C          62.2230   80.1481   13.2394 C.ar    1  UNL1        0.0577
     14 CL         61.9681   78.6851   13.4516 Cl      1  UNL1       -0.0822
     15 C          62.9218   80.6151   11.9970 C.ar    1  UNL1        0.0111
     16 C          63.1767   82.0780   11.7848 C.ar    1  UNL1       -0.0026
     17 C          62.5217   85.2042   11.3431 C.ar    1  UNL1        0.0094
     18 C          63.2909   85.0211   10.0684 C.ar    1  UNL1       -0.0004
     19 C          62.8248   85.6886    8.8086 C.ar    1  UNL1        0.0204
     20 C          61.5895   86.5393    8.8234 C.ar    1  UNL1        0.0989
     21 N          60.8202   86.7224   10.0980 N.ar    1  UNL1       -0.2426
     22 C          61.2863   86.0549   11.3578 C.ar    1  UNL1        0.0954
     23 C          63.9079   91.3163   13.2658 C.3     1  UNL1        0.0992
     24 C          64.9430   91.9786   12.4055 C.ar    1  UNL1       -0.0022
     25 C          64.6763   92.1978   10.9457 C.ar    1  UNL1       -0.0030
     26 C          65.7113   92.8600   10.0854 C.ar    1  UNL1       -0.0003
     27 C          67.0130   93.3030   10.6848 C.ar    1  UNL1       -0.0001
     28 C          67.2796   93.0838   12.1446 C.ar    1  UNL1        0.0036
     29 C          66.2446   92.4216   13.0049 C.ar    1  UNL1        0.0688
     30 C          66.5113   92.2024   14.4646 C.3     1  UNL1        0.4183
     31 F          66.7780   91.9832   15.9244 F       1  UNL1       -0.1659
     32 F          65.8868   93.5297   14.7780 F       1  UNL1       -0.1659
     33 F          67.1358   90.8750   14.1512 F       1  UNL1       -0.1659
@<TRIPOS>BOND
     1     1     2    2
     2     2     9    1
     3     9    10    1
     4    10    11   ar
     5    11    12   ar
     6    12    13   ar
     7    13    14    1
     8    13    15   ar
     9    15    16   ar
    10     9    17    1
    11    17    18   ar
    12    18    19   ar
    13    19    20   ar
    14    20    21   ar
    15    21    22   ar
    16     2     3   am
    17     3     4    1
    18     4     5    1
    19     5     6    1
    20     6    23    1
    21    23    24    1
    22    24    25   ar
    23    25    26   ar
    24    26    27   ar
    25    27    28   ar
    26    28    29   ar
    27    29    30    1
    28    30    31    1
    29    30    32    1
    30    30    33    1
    31     6     7    1
    32     7     8    1
    33    16    10   ar
    34    22    17   ar
    35     8     3    1
    36    29    24   ar
@<TRIPOS>MOLECULE
*****
 33 36 0 0 0
SMALL
GASTEIGER

@<TRIPOS>ATOM
      1 O          63.8021   84.8203   14.4474 O.2     1  UNL1       -0.2742
      2 C          63.4097   85.6749   13.2786 C.2     1  UNL1        0.2335
      3 N          63.6446   87.1557   13.3199 N.am    1  UNL1       -0.2762
      4 C          63.2522   88.0103   12.1512 C.3     1  UNL1        0.1108
      5 C          63.4872   89.4912   12.1925 C.3     1  UNL1        0.0942
      6 N          64.1145   90.1176   13.4025 N.3     1  UNL1       -0.2660
      7 C          64.5069   89.2631   14.5712 C.3     1  UNL1        0.0942
      8 C          64.2719   87.7822   14.5299 C.3     1  UNL1        0.1108
      9 C          62.7824   85.0484   12.0686 C.3     1  UNL1        0.1226
     10 C          62.0469   85.9020   11.0783 C.ar    1  UNL1       -0.0097
     11 C          62.4594   85.9023    9.6362 C.ar    1  UNL1       -0.0026
     12 C          61.7240   86.7557    8.6459 C.ar    1  UNL1        0.0111
     13 C          60.5760   87.6089    9.0978 C.ar    1  UNL1        0.0577
     14 CL         59.8406   88.4625    8.1075 Cl      1  UNL1       -0.0822
     15 C          60.1635   87.6087   10.5399 C.ar    1  UNL1        0.0111
     16 C          60.8989   86.7552   11.5302 C.ar    1  UNL1       -0.0026
     17 C          62.8905   83.5686   11.8490 C.ar    1  UNL1        0.0094
     18 C          63.6144   83.0398   10.6463 C.ar    1  UNL1       -0.0004
     19 C          63.7225   81.5599   10.4267 C.ar    1  UNL1        0.0204
     20 C          63.1067   80.6088   11.4096 C.ar    1  UNL1        0.0989
     21 N          62.3827   81.1376   12.6123 N.ar    1  UNL1       -0.2426
     22 C          62.2746   82.6175   12.8319 C.ar    1  UNL1        0.0954
     23 C          64.3494   91.5985   13.4438 C.3     1  UNL1        0.0992
     24 C          65.5139   92.1521   14.2104 C.ar    1  UNL1       -0.0022
     25 C          65.5189   92.0976   15.7094 C.ar    1  UNL1       -0.0030
     26 C          66.6833   92.6511   16.4761 C.ar    1  UNL1       -0.0003
     27 C          67.8426   93.2592   15.7438 C.ar    1  UNL1       -0.0001
     28 C          67.8375   93.3136   14.2448 C.ar    1  UNL1        0.0036
     29 C          66.6731   92.7601   13.4781 C.ar    1  UNL1        0.0688
     30 C          66.6680   92.8145   11.9791 C.3     1  UNL1        0.4183
     31 F          66.6629   92.8690   10.4801 F       1  UNL1       -0.1659
     32 F          67.6625   91.6924   11.9350 F       1  UNL1       -0.1659
     33 F          65.6736   93.9366   12.0232 F       1  UNL1       -0.1659
@<TRIPOS>BOND
     1     1     2    2
     2     2     9    1
     3     9    10    1
     4    10    11   ar
     5    11    12   ar
     6    12    13   ar
     7    13    14    1
     8    13    15   ar
     9    15    16   ar
    10     9    17    1
    11    17    18   ar
    12    18    19   ar
    13    19    20   ar
    14    20    21   ar
    15    21    22   ar
    16     2     3   am
    17     3     4    1
    18     4     5    1
    19     5     6    1
    20     6    23    1
    21    23    24    1
    22    24    25   ar
    23    25    26   ar
    24    26    27   ar
    25    27    28   ar
    26    28    29   ar
    27    29    30    1
    28    30    31    1
    29    30    32    1
    30    30    33    1
    31     6     7    1
    32     7     8    1
    33    16    10   ar
    34    22    17   ar
    35     8     3    1
    36    29    24   ar
@<TRIPOS>MOLECULE
*****
 33 36 0 0 0
SMALL
GASTEIGER

@<TRIPOS>ATOM
      1 O          61.2664   85.6179   10.4082 O.2     1  UNL1       -0.2742
      2 C          62.1850   85.8960   11.5609 C.2     1  UNL1        0.2335
      3 N          62.6391   87.2988   11.8365 N.am    1  UNL1       -0.2762
      4 C          63.5578   87.5769   12.9893 C.3     1  UNL1        0.1108
      5 C          64.0119   88.9797   13.2649 C.3     1  UNL1        0.0942
      6 N          63.5474   90.1044   12.3877 N.3     1  UNL1       -0.2660
      7 C          62.6288   89.8263   11.2350 C.3     1  UNL1        0.0942
      8 C          62.1746   88.4234   10.9594 C.3     1  UNL1        0.1108
      9 C          62.6495   84.7713   12.4381 C.3     1  UNL1        0.1226
     10 C          62.8156   83.3942   11.8670 C.ar    1  UNL1       -0.0097
     11 C          62.2533   82.2083   12.5932 C.ar    1  UNL1       -0.0026
     12 C          62.4195   80.8313   12.0221 C.ar    1  UNL1        0.0111
     13 C          63.1478   80.6402   10.7248 C.ar    1  UNL1        0.0577
     14 CL         63.3139   79.2631   10.1537 Cl      1  UNL1       -0.0822
     15 C          63.7101   81.8262    9.9986 C.ar    1  UNL1        0.0111
     16 C          63.5439   83.2032   10.5697 C.ar    1  UNL1       -0.0026
     17 C          62.9478   85.0237   13.8862 C.ar    1  UNL1        0.0094
     18 C          64.3483   85.3420   14.3191 C.ar    1  UNL1       -0.0004
     19 C          64.6466   85.5944   15.7674 C.ar    1  UNL1        0.0204
     20 C          63.5445   85.5285   16.7827 C.ar    1  UNL1        0.0989
     21 N          62.1440   85.2102   16.3498 N.ar    1  UNL1       -0.2426
     22 C          61.8457   84.9578   14.9017 C.ar    1  UNL1        0.0954
     23 C          64.0015   91.5071   12.6633 C.3     1  UNL1        0.0992
     24 C          65.3457   91.7524   13.2823 C.ar    1  UNL1       -0.0022
     25 C          65.6290   91.2719   14.6748 C.ar    1  UNL1       -0.0030
     26 C          66.9731   91.5172   15.2939 C.ar    1  UNL1       -0.0003
     27 C          68.0338   92.2428   14.5205 C.ar    1  UNL1       -0.0001
     28 C          67.7505   92.7232   13.1280 C.ar    1  UNL1        0.0036
     29 C          66.4064   92.4780   12.5090 C.ar    1  UNL1        0.0688
     30 C          66.1231   92.9585   11.1165 C.3     1  UNL1        0.4183
     31 F          65.8398   93.4389    9.7241 F       1  UNL1       -0.1659
     32 F          66.8075   91.7458   10.5588 F       1  UNL1       -0.1659
     33 F          65.4387   94.1711   11.6742 F       1  UNL1       -0.1659
@<TRIPOS>BOND
     1     1     2    2
     2     2     9    1
     3     9    10    1
     4    10    11   ar
     5    11    12   ar
     6    12    13   ar
     7    13    14    1
     8    13    15   ar
     9    15    16   ar
    10     9    17    1
    11    17    18   ar
    12    18    19   ar
    13    19    20   ar
    14    20    21   ar
    15    21    22   ar
    16     2     3   am
    17     3     4    1
    18     4     5    1
    19     5     6    1
    20     6    23    1
    21    23    24    1
    22    24    25   ar
    23    25    26   ar
    24    26    27   ar
    25    27    28   ar
    26    28    29   ar
    27    29    30    1
    28    30    31    1
    29    30    32    1
    30    30    33    1
    31     6     7    1
    32     7     8    1
    33    16    10   ar
    34    22    17   ar
    35     8     3    1
    36    29    24   ar
