@<TRIPOS>MOLECULE
*****
 28 31 0 0 0
SMALL
GASTEIGER

@<TRIPOS>ATOM
      1 C          61.9041   88.0685   11.5393 C.ar    1  UNL1        0.2490
      2 N          62.6945   86.9048   12.0600 N.ar    1  UNL1       -0.1863
      3 C          62.7270   85.6166   11.2922 C.ar    1  UNL1        0.2225
      4 N          61.9691   85.4921   10.0038 N.ar    1  UNL1       -0.1420
      5 N          61.1787   86.6557    9.4832 N.ar    1  UNL1       -0.2193
      6 C          60.3385   86.8282    8.2526 C.ar    1  UNL1        0.1371
      7 C          59.7867   88.2230    8.2597 C.ar    1  UNL1        0.1553
      8 C          60.2859   88.9125    9.4948 C.ar    1  UNL1        0.0359
      9 C          59.9787   90.3231    9.9023 C.3     1  UNL1        0.0360
     10 C          61.1462   87.9439   10.2509 C.ar    1  UNL1        0.1353
     11 O          61.8715   89.3567   12.3071 O.3     1  UNL1       -0.4328
     12 C          68.4050   92.8307   14.9278 C.3     1  UNL1        0.0521
     13 C          67.2022   92.3228   14.1893 C.2     1  UNL1        0.0591
     14 C          66.2082   91.3243   14.7040 C.2     1  UNL1        0.0182
     15 C          65.1739   91.1087   13.6393 C.2     1  UNL1        0.0455
     16 C          63.9549   90.2363   13.5862 C.2     1  UNL1        0.1752
     17 F          63.6002   89.3710   14.7590 F       1  UNL1       -0.2009
     18 C          63.0905   90.2291   12.3602 C.2     1  UNL1        0.1706
     19 C          63.4453   91.0944   11.1874 C.2     1  UNL1        0.0201
     20 C          64.6644   91.9668   11.2406 C.3     1  UNL1        0.0751
     21 C          65.5286   91.9740   12.4665 C.2     1  UNL1        0.0653
     22 N          66.7822   92.7243   12.8064 N.2     1  UNL1       -0.2536
     23 O          58.8928   88.8229    7.2153 O.3     1  UNL1       -0.4715
     24 C          59.4447   89.8166    6.2365 C.3     1  UNL1        0.2344
     25 C          58.5226   90.7670    5.5319 C.3     1  UNL1        0.1541
     26 C          59.0839   91.9331    4.7735 C.3     1  UNL1        0.0357
     27 O          57.0392   90.5512    5.5857 O.3     1  UNL1       -0.3806
     28 H          56.5924   91.2497    5.0823 H       1  UNL1        0.2105
@<TRIPOS>BOND
     1    12    13    1
     2    13    14    2
     3    14    15    1
     4    15    16    2
     5    16    17    1
     6    16    18    1
     7    18    11    1
     8    11     1    1
     9     1     2   ar
    10     2     3   ar
    11     3     4   ar
    12     4     5   ar
    13     5     6   ar
    14     6     7   ar
    15     7    23    1
    16    23    24    1
    17    24    25    1
    18    25    26    1
    19    25    27    1
    20     7     8   ar
    21     8     9    1
    22     8    10   ar
    23    18    19    2
    24    19    20    1
    25    20    21    1
    26    21    22    2
    27    22    13    1
    28    21    15    1
    29    10     1   ar
    30    10     5   ar
    31    27    28    1
@<TRIPOS>MOLECULE
*****
 28 31 0 0 0
SMALL
GASTEIGER

@<TRIPOS>ATOM
      1 C          62.3988   86.7834   10.9812 C.ar    1  UNL1        0.2490
      2 N          62.0012   87.2522    9.6130 N.ar    1  UNL1       -0.1863
      3 C          62.1656   86.3428    8.4314 C.ar    1  UNL1        0.2225
      4 N          62.7276   84.9647    8.6181 N.ar    1  UNL1       -0.1420
      5 N          63.1252   84.4959    9.9863 N.ar    1  UNL1       -0.2193
      6 C          63.7030   83.2008   10.4750 C.ar    1  UNL1        0.1371
      7 C          63.8957   83.3097   11.9586 C.ar    1  UNL1        0.1553
      8 C          63.4370   84.6721   12.3868 C.ar    1  UNL1        0.0359
      9 C          63.4519   85.2074   13.7879 C.3     1  UNL1        0.0360
     10 C          62.9609   85.4053   11.1679 C.ar    1  UNL1        0.1353
     11 O          62.2345   87.6927   12.1628 O.3     1  UNL1       -0.4328
     12 C          66.9703   93.4206   14.6899 C.3     1  UNL1        0.0521
     13 C          66.0207   92.5002   13.9820 C.2     1  UNL1        0.0591
     14 C          65.5776   91.1503   14.4632 C.2     1  UNL1        0.0182
     15 C          64.6305   90.5839   13.4473 C.2     1  UNL1        0.0455
     16 C          63.8793   89.2869   13.3888 C.2     1  UNL1        0.1752
     17 F          64.0217   88.2871   14.4979 F       1  UNL1       -0.2009
     18 C          62.9857   88.9897   12.2212 C.2     1  UNL1        0.1706
     19 C          62.8433   89.9896   11.1122 C.2     1  UNL1        0.0201
     20 C          63.5946   91.2866   11.1707 C.3     1  UNL1        0.0751
     21 C          64.4881   91.5838   12.3382 C.2     1  UNL1        0.0653
     22 N          65.3473   92.7681   12.6687 N.2     1  UNL1       -0.2536
     23 O          64.4498   82.2433   12.8563 O.3     1  UNL1       -0.4715
     24 C          63.5522   81.1600   13.3767 C.3     1  UNL1        0.2344
     25 C          62.3929   81.5077   14.2627 C.3     1  UNL1        0.1541
     26 C          61.0376   80.9269   13.9870 C.3     1  UNL1        0.0357
     27 O          62.5887   82.4362   15.4244 O.3     1  UNL1       -0.3806
     28 H          61.7458   82.5543   15.8896 H       1  UNL1        0.2105
@<TRIPOS>BOND
     1    12    13    1
     2    13    14    2
     3    14    15    1
     4    15    16    2
     5    16    17    1
     6    16    18    1
     7    18    11    1
     8    11     1    1
     9     1     2   ar
    10     2     3   ar
    11     3     4   ar
    12     4     5   ar
    13     5     6   ar
    14     6     7   ar
    15     7    23    1
    16    23    24    1
    17    24    25    1
    18    25    26    1
    19    25    27    1
    20     7     8   ar
    21     8     9    1
    22     8    10   ar
    23    18    19    2
    24    19    20    1
    25    20    21    1
    26    21    22    2
    27    22    13    1
    28    21    15    1
    29    10     1   ar
    30    10     5   ar
    31    27    28    1
@<TRIPOS>MOLECULE
*****
 28 31 0 0 0
SMALL
GASTEIGER

@<TRIPOS>ATOM
      1 C          61.6005   89.3402   11.6721 C.ar    1  UNL1        0.2490
      2 N          60.7621   90.3591   10.9587 N.ar    1  UNL1       -0.1863
      3 C          60.1150   90.0146    9.6501 C.ar    1  UNL1        0.2225
      4 N          60.3062   88.6512    9.0548 N.ar    1  UNL1       -0.1420
      5 N          61.1446   87.6323    9.7681 N.ar    1  UNL1       -0.2193
      6 C          61.5101   86.2177    9.4285 C.ar    1  UNL1        0.1371
      7 C          62.3830   85.6879   10.5273 C.ar    1  UNL1        0.1553
      8 C          62.5571   86.7751   11.5459 C.ar    1  UNL1        0.0359
      9 C          63.3563   86.6777   12.8116 C.3     1  UNL1        0.0360
     10 C          61.7917   87.9768   11.0767 C.ar    1  UNL1        0.1353
     11 O          62.2476   89.6847   12.9807 O.3     1  UNL1       -0.4328
     12 C          68.5589   93.5500   15.5979 C.3     1  UNL1        0.0521
     13 C          67.4156   92.9359   14.8458 C.2     1  UNL1        0.0591
     14 C          66.3891   92.0001   15.4120 C.2     1  UNL1        0.0182
     15 C          65.4371   91.6356   14.3116 C.2     1  UNL1        0.0455
     16 C          64.2279   90.7485   14.2834 C.2     1  UNL1        0.1752
     17 F          63.7897   90.0381   15.5297 F       1  UNL1       -0.2009
     18 C          63.4568   90.5718   13.0089 C.2     1  UNL1        0.1706
     19 C          63.8951   91.2822   11.7626 C.2     1  UNL1        0.0201
     20 C          65.1044   92.1693   11.7908 C.3     1  UNL1        0.0751
     21 C          65.8753   92.3460   13.0653 C.2     1  UNL1        0.0653
     22 N          67.0981   93.1496   13.3955 N.2     1  UNL1       -0.2536
     23 O          62.9775   84.3124   10.5954 O.3     1  UNL1       -0.4715
     24 C          62.7613   83.4613   11.8115 C.3     1  UNL1        0.2344
     25 C          63.6021   82.2385   12.0302 C.3     1  UNL1        0.1541
     26 C          62.9486   80.9256   12.3455 C.3     1  UNL1        0.0357
     27 O          65.0962   82.3285   11.9337 O.3     1  UNL1       -0.3806
     28 H          65.4842   81.4553   12.1009 H       1  UNL1        0.2105
@<TRIPOS>BOND
     1    12    13    1
     2    13    14    2
     3    14    15    1
     4    15    16    2
     5    16    17    1
     6    16    18    1
     7    18    11    1
     8    11     1    1
     9     1     2   ar
    10     2     3   ar
    11     3     4   ar
    12     4     5   ar
    13     5     6   ar
    14     6     7   ar
    15     7    23    1
    16    23    24    1
    17    24    25    1
    18    25    26    1
    19    25    27    1
    20     7     8   ar
    21     8     9    1
    22     8    10   ar
    23    18    19    2
    24    19    20    1
    25    20    21    1
    26    21    22    2
    27    22    13    1
    28    21    15    1
    29    10     1   ar
    30    10     5   ar
    31    27    28    1
@<TRIPOS>MOLECULE
*****
 28 31 0 0 0
SMALL
GASTEIGER

@<TRIPOS>ATOM
      1 C          63.2971   88.0016   13.3644 C.ar    1  UNL1        0.2490
      2 N          64.2074   87.4844   14.4385 N.ar    1  UNL1       -0.1863
      3 C          64.5719   86.0298   14.4766 C.ar    1  UNL1        0.2225
      4 N          64.0261   85.0925   13.4405 N.ar    1  UNL1       -0.1420
      5 N          63.1157   85.6097   12.3664 N.ar    1  UNL1       -0.2193
      6 C          62.4288   84.9296   11.2195 C.ar    1  UNL1        0.1371
      7 C          61.6397   85.9637   10.4726 C.ar    1  UNL1        0.1553
      8 C          61.8390   87.2830   11.1579 C.ar    1  UNL1        0.0359
      9 C          61.2326   88.5914   10.7453 C.3     1  UNL1        0.0360
     10 C          62.7512   87.0643   12.3284 C.ar    1  UNL1        0.1353
     11 O          62.9326   89.4561   13.3264 O.3     1  UNL1       -0.4328
     12 C          67.2033   95.0913    9.9162 C.3     1  UNL1        0.0521
     13 C          66.5735   94.0436   10.7855 C.2     1  UNL1        0.0591
     14 C          65.3657   93.2229   10.4427 C.2     1  UNL1        0.0182
     15 C          65.0866   92.3047   11.5956 C.2     1  UNL1        0.0455
     16 C          64.0235   91.2708   11.8207 C.2     1  UNL1        0.1752
     17 F          62.9881   91.0175   10.7653 F       1  UNL1       -0.2009
     18 C          63.9957   90.4901   13.1013 C.2     1  UNL1        0.1706
     19 C          65.0310   90.7434   14.1567 C.2     1  UNL1        0.0201
     20 C          66.0942   91.7774   13.9315 C.3     1  UNL1        0.0751
     21 C          66.1219   92.5580   12.6510 C.2     1  UNL1        0.0653
     22 N          67.0408   93.6327   12.1504 N.2     1  UNL1       -0.2536
     23 O          60.7989   85.7212    9.2543 O.3     1  UNL1       -0.4715
     24 C          60.7722   86.7335    8.1477 C.3     1  UNL1        0.2344
     25 C          59.4807   87.3944    7.7669 C.3     1  UNL1        0.1541
     26 C          59.4702   88.8349    7.3485 C.3     1  UNL1        0.0357
     27 O          58.1997   86.6150    7.8044 O.3     1  UNL1       -0.3806
     28 H          57.4652   87.1866    7.5311 H       1  UNL1        0.2105
@<TRIPOS>BOND
     1    12    13    1
     2    13    14    2
     3    14    15    1
     4    15    16    2
     5    16    17    1
     6    16    18    1
     7    18    11    1
     8    11     1    1
     9     1     2   ar
    10     2     3   ar
    11     3     4   ar
    12     4     5   ar
    13     5     6   ar
    14     6     7   ar
    15     7    23    1
    16    23    24    1
    17    24    25    1
    18    25    26    1
    19    25    27    1
    20     7     8   ar
    21     8     9    1
    22     8    10   ar
    23    18    19    2
    24    19    20    1
    25    20    21    1
    26    21    22    2
    27    22    13    1
    28    21    15    1
    29    10     1   ar
    30    10     5   ar
    31    27    28    1
@<TRIPOS>MOLECULE
*****
 28 31 0 0 0
SMALL
GASTEIGER

@<TRIPOS>ATOM
      1 C          63.2464   88.1088   13.2733 C.ar    1  UNL1        0.2490
      2 N          64.1196   87.5818   14.3730 N.ar    1  UNL1       -0.1863
      3 C          64.4446   86.1188   14.4368 C.ar    1  UNL1        0.2225
      4 N          63.8962   85.1828   13.4009 N.ar    1  UNL1       -0.1420
      5 N          63.0229   85.7099   12.3011 N.ar    1  UNL1       -0.2193
      6 C          62.3427   85.0333   11.1481 C.ar    1  UNL1        0.1371
      7 C          61.5973   86.0781   10.3716 C.ar    1  UNL1        0.1553
      8 C          61.8169   87.4005   11.0448 C.ar    1  UNL1        0.0359
      9 C          61.2543   88.7189   10.6031 C.3     1  UNL1        0.0360
     10 C          62.6980   87.1729   12.2373 C.ar    1  UNL1        0.1353
     11 O          62.9214   89.5718   13.2095 O.3     1  UNL1       -0.4328
     12 C          68.7157   94.0838   15.9830 C.3     1  UNL1        0.0521
     13 C          67.6610   93.3556   15.2036 C.2     1  UNL1        0.0591
     14 C          66.7364   92.3036   15.7407 C.2     1  UNL1        0.0182
     15 C          65.8498   91.8494   14.6193 C.2     1  UNL1        0.0455
     16 C          64.7481   90.8331   14.5594 C.2     1  UNL1        0.1752
     17 F          64.3715   90.0619   15.7896 F       1  UNL1       -0.2009
     18 C          64.0231   90.5881   13.2693 C.2     1  UNL1        0.1706
     19 C          64.3997   91.3593   12.0391 C.2     1  UNL1        0.0201
     20 C          65.5014   92.3756   12.0990 C.3     1  UNL1        0.0751
     21 C          66.2264   92.6206   13.3891 C.2     1  UNL1        0.0653
     22 N          67.3458   93.5515   13.7502 N.2     1  UNL1       -0.2536
     23 O          60.7765   85.8421    9.1385 O.3     1  UNL1       -0.4715
     24 C          60.7140   86.8900    8.0672 C.3     1  UNL1        0.2344
     25 C          59.3897   87.4563    7.6483 C.3     1  UNL1        0.1541
     26 C          59.3071   88.8568    7.1172 C.3     1  UNL1        0.0357
     27 O          58.1480   86.6223    7.7605 O.3     1  UNL1       -0.3806
     28 H          57.3851   87.1348    7.4503 H       1  UNL1        0.2105
@<TRIPOS>BOND
     1    12    13    1
     2    13    14    2
     3    14    15    1
     4    15    16    2
     5    16    17    1
     6    16    18    1
     7    18    11    1
     8    11     1    1
     9     1     2   ar
    10     2     3   ar
    11     3     4   ar
    12     4     5   ar
    13     5     6   ar
    14     6     7   ar
    15     7    23    1
    16    23    24    1
    17    24    25    1
    18    25    26    1
    19    25    27    1
    20     7     8   ar
    21     8     9    1
    22     8    10   ar
    23    18    19    2
    24    19    20    1
    25    20    21    1
    26    21    22    2
    27    22    13    1
    28    21    15    1
    29    10     1   ar
    30    10     5   ar
    31    27    28    1
@<TRIPOS>MOLECULE
*****
 28 31 0 0 0
SMALL
GASTEIGER

@<TRIPOS>ATOM
      1 C          62.1471   87.3771   11.1672 C.ar    1  UNL1        0.2490
      2 N          61.6966   87.7494    9.7858 N.ar    1  UNL1       -0.1863
      3 C          61.8212   86.7609    8.6645 C.ar    1  UNL1        0.2225
      4 N          62.3962   85.4001    8.9246 N.ar    1  UNL1       -0.1420
      5 N          62.8467   85.0279   10.3060 N.ar    1  UNL1       -0.2193
      6 C          63.4483   83.7709   10.8609 C.ar    1  UNL1        0.1371
      7 C          63.6956   83.9824   12.3252 C.ar    1  UNL1        0.1553
      8 C          63.2468   85.3702   12.6752 C.ar    1  UNL1        0.0359
      9 C          63.3114   86.0012   14.0346 C.3     1  UNL1        0.0360
     10 C          62.7222   86.0164   11.4273 C.ar    1  UNL1        0.1353
     11 O          62.0226   88.3656   12.2886 O.3     1  UNL1       -0.4328
     12 C          66.4992   94.6617   10.8947 C.3     1  UNL1        0.0521
     13 C          65.7931   93.4413   11.4067 C.2     1  UNL1        0.0591
     14 C          64.6910   92.7020   10.7076 C.2     1  UNL1        0.0182
     15 C          64.2818   91.5498   11.5765 C.2     1  UNL1        0.0455
     16 C          63.2457   90.4793   11.4018 C.2     1  UNL1        0.1752
     17 F          62.3965   90.4520   10.1656 F       1  UNL1       -0.2009
     18 C          63.0587   89.4361   12.4633 C.2     1  UNL1        0.1706
     19 C          63.9079   89.4633   13.6995 C.2     1  UNL1        0.0201
     20 C          64.9440   90.5339   13.8741 C.3     1  UNL1        0.0751
     21 C          65.1310   91.5770   12.8127 C.2     1  UNL1        0.0653
     22 N          66.0650   92.7461   12.7077 N.2     1  UNL1       -0.2536
     23 O          64.2878   82.9819   13.2730 O.3     1  UNL1       -0.4715
     24 C          63.4168   82.3046   14.2891 C.3     1  UNL1        0.2344
     25 C          62.3859   81.3081   13.8484 C.3     1  UNL1        0.1541
     26 C          62.6474   80.4357   12.6566 C.3     1  UNL1        0.0357
     27 O          61.0935   81.1840   14.5996 O.3     1  UNL1       -0.3806
     28 H          60.5441   80.4994   14.1868 H       1  UNL1        0.2105
@<TRIPOS>BOND
     1    12    13    1
     2    13    14    2
     3    14    15    1
     4    15    16    2
     5    16    17    1
     6    16    18    1
     7    18    11    1
     8    11     1    1
     9     1     2   ar
    10     2     3   ar
    11     3     4   ar
    12     4     5   ar
    13     5     6   ar
    14     6     7   ar
    15     7    23    1
    16    23    24    1
    17    24    25    1
    18    25    26    1
    19    25    27    1
    20     7     8   ar
    21     8     9    1
    22     8    10   ar
    23    18    19    2
    24    19    20    1
    25    20    21    1
    26    21    22    2
    27    22    13    1
    28    21    15    1
    29    10     1   ar
    30    10     5   ar
    31    27    28    1
@<TRIPOS>MOLECULE
*****
 28 31 0 0 0
SMALL
GASTEIGER

@<TRIPOS>ATOM
      1 C          63.7238   87.7408   14.7302 C.ar    1  UNL1        0.2490
      2 N          63.5214   88.8839   15.6802 N.ar    1  UNL1       -0.1863
      3 C          63.0645   88.6203   17.0843 C.ar    1  UNL1        0.2225
      4 N          62.8099   87.2136   17.5386 N.ar    1  UNL1       -0.1420
      5 N          63.0123   86.0705   16.5887 N.ar    1  UNL1       -0.2193
      6 C          62.8424   84.5890   16.7504 C.ar    1  UNL1        0.1371
      7 C          63.1944   83.9369   15.4462 C.ar    1  UNL1        0.1553
      8 C          63.5818   85.0155   14.4784 C.ar    1  UNL1        0.0359
      9 C          64.0071   84.8113   13.0545 C.3     1  UNL1        0.0360
     10 C          63.4692   86.3341   15.1845 C.ar    1  UNL1        0.1353
     11 O          64.1808   88.0044   13.3261 O.3     1  UNL1       -0.4328
     12 C          59.1027   88.5612    7.3657 C.3     1  UNL1        0.0521
     13 C          60.0345   88.7393    8.5276 C.2     1  UNL1        0.0591
     14 C          60.8180   87.6536    9.2039 C.2     1  UNL1        0.0182
     15 C          61.6141   88.2776   10.3115 C.2     1  UNL1        0.0455
     16 C          62.5668   87.6961   11.3135 C.2     1  UNL1        0.1752
     17 F          62.8584   86.2247   11.3052 F       1  UNL1       -0.2009
     18 C          63.2281   88.5859   12.3240 C.2     1  UNL1        0.1706
     19 C          62.9365   90.0573   12.3323 C.2     1  UNL1        0.0201
     20 C          61.9838   90.6388   11.3302 C.3     1  UNL1        0.0751
     21 C          61.3226   89.7489   10.3198 C.2     1  UNL1        0.0653
     22 N          60.3463   90.0343    9.2173 N.2     1  UNL1       -0.2536
     23 O          63.1643   82.4648   15.1600 O.3     1  UNL1       -0.4715
     24 C          62.0447   81.8809   14.3504 C.3     1  UNL1        0.2344
     25 C          62.3492   81.0357   13.1492 C.3     1  UNL1        0.1541
     26 C          62.7878   81.6825   11.8688 C.3     1  UNL1        0.0357
     27 O          62.2152   79.5438   13.2283 O.3     1  UNL1       -0.3806
     28 H          62.4479   79.1524   12.3719 H       1  UNL1        0.2105
@<TRIPOS>BOND
     1    12    13    1
     2    13    14    2
     3    14    15    1
     4    15    16    2
     5    16    17    1
     6    16    18    1
     7    18    11    1
     8    11     1    1
     9     1     2   ar
    10     2     3   ar
    11     3     4   ar
    12     4     5   ar
    13     5     6   ar
    14     6     7   ar
    15     7    23    1
    16    23    24    1
    17    24    25    1
    18    25    26    1
    19    25    27    1
    20     7     8   ar
    21     8     9    1
    22     8    10   ar
    23    18    19    2
    24    19    20    1
    25    20    21    1
    26    21    22    2
    27    22    13    1
    28    21    15    1
    29    10     1   ar
    30    10     5   ar
    31    27    28    1
@<TRIPOS>MOLECULE
*****
 28 31 0 0 0
SMALL
GASTEIGER

@<TRIPOS>ATOM
      1 C          61.5273   89.2241   11.6477 C.ar    1  UNL1        0.2490
      2 N          60.6105   90.1513   10.9063 N.ar    1  UNL1       -0.1863
      3 C          59.9079   89.6796    9.6679 C.ar    1  UNL1        0.2225
      4 N          60.1220   88.2807    9.1708 N.ar    1  UNL1       -0.1420
      5 N          61.0387   87.3535    9.9123 N.ar    1  UNL1       -0.2193
      6 C          61.4426   85.9304    9.6638 C.ar    1  UNL1        0.1371
      7 C          62.3948   85.5225   10.7486 C.ar    1  UNL1        0.1553
      8 C          62.5795   86.6936   11.6676 C.ar    1  UNL1        0.0359
      9 C          63.4495   86.7272   12.8890 C.3     1  UNL1        0.0360
     10 C          61.7414   87.8252   11.1507 C.ar    1  UNL1        0.1353
     11 O          62.2300   89.6958   12.8862 O.3     1  UNL1       -0.4328
     12 C          67.6045   94.5714    9.8917 C.3     1  UNL1        0.0521
     13 C          66.7337   93.6600   10.7049 C.2     1  UNL1        0.0591
     14 C          65.4925   92.9673   10.2259 C.2     1  UNL1        0.0182
     15 C          64.9430   92.1606   11.3649 C.2     1  UNL1        0.0455
     16 C          63.7381   91.2743   11.4776 C.2     1  UNL1        0.1752
     17 F          62.8364   91.0802   10.2947 F       1  UNL1       -0.2009
     18 C          63.4348   90.5821   12.7734 C.2     1  UNL1        0.1706
     19 C          64.3365   90.7762   13.9563 C.2     1  UNL1        0.0201
     20 C          65.5414   91.6625   13.8435 C.3     1  UNL1        0.0751
     21 C          65.8447   92.3547   12.5478 C.2     1  UNL1        0.0653
     22 N          66.9514   93.2814   12.1399 N.2     1  UNL1       -0.2536
     23 O          63.0477   84.1795   10.8897 O.3     1  UNL1       -0.4715
     24 C          63.5937   83.7468   12.2181 C.3     1  UNL1        0.2344
     25 C          62.7272   82.9773   13.1705 C.3     1  UNL1        0.1541
     26 C          62.4890   83.4990   14.5566 C.3     1  UNL1        0.0357
     27 O          62.0990   81.6861   12.7369 O.3     1  UNL1       -0.3806
     28 H          61.5747   81.3205   13.4665 H       1  UNL1        0.2105
@<TRIPOS>BOND
     1    12    13    1
     2    13    14    2
     3    14    15    1
     4    15    16    2
     5    16    17    1
     6    16    18    1
     7    18    11    1
     8    11     1    1
     9     1     2   ar
    10     2     3   ar
    11     3     4   ar
    12     4     5   ar
    13     5     6   ar
    14     6     7   ar
    15     7    23    1
    16    23    24    1
    17    24    25    1
    18    25    26    1
    19    25    27    1
    20     7     8   ar
    21     8     9    1
    22     8    10   ar
    23    18    19    2
    24    19    20    1
    25    20    21    1
    26    21    22    2
    27    22    13    1
    28    21    15    1
    29    10     1   ar
    30    10     5   ar
    31    27    28    1
@<TRIPOS>MOLECULE
*****
 28 31 0 0 0
SMALL
GASTEIGER

@<TRIPOS>ATOM
      1 C          63.2423   88.1258   14.9560 C.ar    1  UNL1        0.2490
      2 N          63.0871   88.8411   16.2653 N.ar    1  UNL1       -0.1863
      3 C          63.0913   88.0651   17.5490 C.ar    1  UNL1        0.2225
      4 N          63.2507   86.5738   17.5234 N.ar    1  UNL1       -0.1420
      5 N          63.4058   85.8585   16.2141 N.ar    1  UNL1       -0.2193
      6 C          63.5798   84.4071   15.8778 C.ar    1  UNL1        0.1371
      7 C          63.6831   84.2860   14.3862 C.ar    1  UNL1        0.1553
      8 C          63.5730   85.6627   13.8008 C.ar    1  UNL1        0.0359
      9 C          63.6252   86.0070   12.3418 C.3     1  UNL1        0.0360
     10 C          63.4016   86.6345   14.9304 C.ar    1  UNL1        0.1353
     11 O          63.2381   88.9018   13.6724 O.3     1  UNL1       -0.4328
     12 C          66.7234   95.2150   10.5710 C.3     1  UNL1        0.0521
     13 C          66.2448   94.0455   11.3791 C.2     1  UNL1        0.0591
     14 C          65.1328   93.1110   11.0047 C.2     1  UNL1        0.0182
     15 C          64.9949   92.0930   12.0978 C.2     1  UNL1        0.0455
     16 C          64.0671   90.9275   12.2726 C.2     1  UNL1        0.1752
     17 F          63.0403   90.6222   11.2227 F       1  UNL1       -0.2009
     18 C          64.1660   90.0673   13.4975 C.2     1  UNL1        0.1706
     19 C          65.1928   90.3726   14.5475 C.2     1  UNL1        0.0201
     20 C          66.1207   91.5382   14.3726 C.3     1  UNL1        0.0751
     21 C          66.0218   92.3984   13.1477 C.2     1  UNL1        0.0653
     22 N          66.7942   93.6050   12.7036 N.2     1  UNL1       -0.2536
     23 O          63.8647   83.0121   13.6155 O.3     1  UNL1       -0.4715
     24 C          62.6661   82.2480   13.1364 C.3     1  UNL1        0.2344
     25 C          62.2155   81.0211   13.8723 C.3     1  UNL1        0.1541
     26 C          60.7515   80.7603   14.0696 C.3     1  UNL1        0.0357
     27 O          63.2287   80.0551   14.4110 O.3     1  UNL1       -0.3806
     28 H          62.7731   79.3232   14.8556 H       1  UNL1        0.2105
@<TRIPOS>BOND
     1    12    13    1
     2    13    14    2
     3    14    15    1
     4    15    16    2
     5    16    17    1
     6    16    18    1
     7    18    11    1
     8    11     1    1
     9     1     2   ar
    10     2     3   ar
    11     3     4   ar
    12     4     5   ar
    13     5     6   ar
    14     6     7   ar
    15     7    23    1
    16    23    24    1
    17    24    25    1
    18    25    26    1
    19    25    27    1
    20     7     8   ar
    21     8     9    1
    22     8    10   ar
    23    18    19    2
    24    19    20    1
    25    20    21    1
    26    21    22    2
    27    22    13    1
    28    21    15    1
    29    10     1   ar
    30    10     5   ar
    31    27    28    1
