@<TRIPOS>MOLECULE
*****
 41 45 0 0 0
SMALL
GASTEIGER

@<TRIPOS>ATOM
      1 C          60.6007   95.3591   -2.8334 C.3     1  UNL1        0.0793
      2 C          62.9328   95.6387   -1.7228 C.ar    1  UNL1        0.1351
      3 C          63.9295   95.2381   -0.6758 C.ar    1  UNL1        0.0366
      4 C          63.5907   94.1573    0.3077 C.ar    1  UNL1        0.0030
      5 C          64.5873   93.7567    1.3546 C.ar    1  UNL1        0.0006
      6 C          64.2486   92.6760    2.3381 C.ar    1  UNL1        0.0067
      7 C          62.9132   91.9958    2.2746 C.ar    1  UNL1        0.0346
      8 BR         62.5745   90.9150    3.2580 Br      1  UNL1       -0.0490
      9 C          61.9165   92.3964    1.2276 C.ar    1  UNL1        0.0067
     10 C          62.2553   93.4771    0.2441 C.ar    1  UNL1        0.0004
     11 C          61.2586   93.8777   -0.8029 C.ar    1  UNL1       -0.0009
     12 C          61.5974   94.9585   -1.7864 C.ar    1  UNL1        0.0182
     13 C          64.4116   96.5324   -3.6631 C.3     1  UNL1        0.2525
     14 O          63.2715   96.7194   -2.7063 O.3     1  UNL1       -0.4717
     15 C          60.9991   95.3794   -4.2794 C.ar    1  UNL1        0.0245
     16 C          60.6175   96.5426   -5.1462 C.ar    1  UNL1        0.0200
     17 C          61.0159   96.5629   -6.5922 C.ar    1  UNL1        0.1019
     18 N          61.7959   95.4200   -7.1713 N.ar    1  UNL1       -0.2076
     19 C          62.1775   94.2569   -6.3045 C.ar    1  UNL1        0.2598
     20 C          61.7791   94.2365   -4.8585 C.ar    1  UNL1        0.1879
     21 O          62.9575   93.1140   -6.8836 O.3     1  UNL1       -0.4541
     22 C          64.3759   93.3215   -7.3253 C.3     1  UNL1        0.2543
     23 O          62.1607   93.0734   -3.9917 O.3     1  UNL1       -0.4670
     24 C          63.6077   92.7678   -3.7409 C.3     1  UNL1        0.2527
     25 C          59.2056   95.7393   -2.4344 C.3     1  UNL1        0.1187
     26 O          59.7506   96.8533   -1.5906 O.3     1  UNL1       -0.3819
     27 H          60.2031   96.4816   -0.8174 H       1  UNL1        0.2107
     28 C          58.6607   94.6253   -3.2782 C.ar    1  UNL1        0.0369
     29 C          58.8417   93.2001   -2.8468 C.ar    1  UNL1        0.0010
     30 C          58.2967   92.0861   -3.6906 C.ar    1  UNL1       -0.0000
     31 C          57.5707   92.3973   -4.9658 C.ar    1  UNL1        0.0031
     32 C          57.3897   93.8224   -5.3972 C.ar    1  UNL1        0.0375
     33 C          56.7233   94.4316   -6.5950 C.ar    1  UNL1        0.0437
     34 C          56.8564   95.9221   -6.4915 C.ar    1  UNL1        0.1796
     35 O          57.6051   96.2341   -5.2297 O.2     1  UNL1       -0.4507
     36 C          57.9347   94.9364   -4.5534 C.ar    1  UNL1        0.1436
     37 C          57.8106   96.1195   -2.0354 C.3     1  UNL1        0.0492
     38 C          57.0158   95.2192   -1.1368 C.3     1  UNL1        0.0750
     39 N          55.6020   94.8642   -1.4910 N.3     1  UNL1       -0.2702
     40 C          55.2673   93.4710   -1.9348 C.3     1  UNL1        0.0897
     41 C          54.5231   95.9024   -1.4015 C.3     1  UNL1        0.0897
@<TRIPOS>BOND
     1    13    14    1
     2    14     2    1
     3     2     3   ar
     4     3     4   ar
     5     4     5   ar
     6     5     6   ar
     7     6     7   ar
     8     7     8    1
     9     7     9   ar
    10     9    10   ar
    11    10    11   ar
    12    11    12   ar
    13     1    12    1
    14     1    15    1
    15    15    16   ar
    16    16    17   ar
    17    17    18   ar
    18    18    19   ar
    19    19    21    1
    20    21    22    1
    21    19    20   ar
    22    20    23    1
    23    23    24    1
    24     1    25    1
    25    25    26    1
    26    25    37    1
    27    37    38    1
    28    38    39    1
    29    39    40    1
    30    39    41    1
    31    25    28    1
    32    28    29   ar
    33    29    30   ar
    34    30    31   ar
    35    31    32   ar
    36    32    33   ar
    37    33    34   ar
    38    34    35   ar
    39    35    36   ar
    40    12     2   ar
    41    20    15   ar
    42    36    28   ar
    43    10     4   ar
    44    36    32   ar
    45    26    27    1
@<TRIPOS>MOLECULE
*****
 41 45 0 0 0
SMALL
GASTEIGER

@<TRIPOS>ATOM
      1 C          58.2702   94.3537   -4.5523 C.3     1  UNL1        0.0793
      2 C          59.5499   96.0498   -6.0475 C.ar    1  UNL1        0.1351
      3 C          60.8174   96.4952   -6.7149 C.ar    1  UNL1        0.0366
      4 C          62.0725   95.6897   -6.5544 C.ar    1  UNL1        0.0030
      5 C          63.3399   96.1351   -7.2217 C.ar    1  UNL1        0.0006
      6 C          64.5951   95.3296   -7.0612 C.ar    1  UNL1        0.0067
      7 C          64.5829   94.0788   -6.2333 C.ar    1  UNL1        0.0346
      8 BR         65.8380   93.2733   -6.0728 Br      1  UNL1       -0.0490
      9 C          63.3154   93.6334   -5.5660 C.ar    1  UNL1        0.0067
     10 C          62.0603   94.4389   -5.7265 C.ar    1  UNL1        0.0004
     11 C          60.7929   93.9936   -5.0592 C.ar    1  UNL1       -0.0009
     12 C          59.5377   94.7991   -5.2197 C.ar    1  UNL1        0.0182
     13 C          57.3424   96.5454   -7.3248 C.3     1  UNL1        0.2525
     14 O          58.2948   96.8553   -6.2080 O.3     1  UNL1       -0.4717
     15 C          57.5300   93.1567   -5.0713 C.ar    1  UNL1        0.0245
     16 C          57.4971   92.8759   -6.5444 C.ar    1  UNL1        0.0200
     17 C          56.7568   91.6789   -7.0633 C.ar    1  UNL1        0.1019
     18 N          56.0496   90.7627   -6.1091 N.ar    1  UNL1       -0.2076
     19 C          56.0825   91.0436   -4.6360 C.ar    1  UNL1        0.2598
     20 C          56.8228   92.2406   -4.1171 C.ar    1  UNL1        0.1879
     21 O          55.3753   90.1274   -3.6819 O.3     1  UNL1       -0.4541
     22 C          54.4075   89.1058   -4.2011 C.3     1  UNL1        0.2543
     23 O          56.8557   92.5214   -2.6440 O.3     1  UNL1       -0.4670
     24 C          55.5737   92.6411   -1.8744 C.3     1  UNL1        0.2527
     25 C          57.7431   95.1053   -3.3661 C.3     1  UNL1        0.1187
     26 O          56.3532   95.0071   -3.9215 O.3     1  UNL1       -0.3819
     27 H          56.2775   95.5735   -4.7053 H       1  UNL1        0.2107
     28 C          59.1330   95.2035   -2.8107 C.ar    1  UNL1        0.0369
     29 C          59.9776   96.4061   -3.1113 C.ar    1  UNL1        0.0010
     30 C          61.3675   96.5043   -2.5558 C.ar    1  UNL1       -0.0000
     31 C          61.9128   95.3999   -1.6998 C.ar    1  UNL1        0.0031
     32 C          61.0682   94.1972   -1.3991 C.ar    1  UNL1        0.0375
     33 C          61.3334   92.9608   -0.5924 C.ar    1  UNL1        0.0437
     34 C          60.1074   92.0985   -0.6492 C.ar    1  UNL1        0.1796
     35 O          59.0845   92.8019   -1.4911 O.2     1  UNL1       -0.4507
     36 C          59.6783   94.0990   -1.9546 C.ar    1  UNL1        0.1436
     37 C          57.2159   95.8569   -2.1799 C.3     1  UNL1        0.0492
     38 C          56.1103   96.8553   -2.3554 C.3     1  UNL1        0.0750
     39 N          54.6939   96.4673   -2.0497 N.3     1  UNL1       -0.2702
     40 C          54.2976   96.1214   -0.6450 C.3     1  UNL1        0.0897
     41 C          53.6740   96.4253   -3.1487 C.3     1  UNL1        0.0897
@<TRIPOS>BOND
     1    13    14    1
     2    14     2    1
     3     2     3   ar
     4     3     4   ar
     5     4     5   ar
     6     5     6   ar
     7     6     7   ar
     8     7     8    1
     9     7     9   ar
    10     9    10   ar
    11    10    11   ar
    12    11    12   ar
    13     1    12    1
    14     1    15    1
    15    15    16   ar
    16    16    17   ar
    17    17    18   ar
    18    18    19   ar
    19    19    21    1
    20    21    22    1
    21    19    20   ar
    22    20    23    1
    23    23    24    1
    24     1    25    1
    25    25    26    1
    26    25    37    1
    27    37    38    1
    28    38    39    1
    29    39    40    1
    30    39    41    1
    31    25    28    1
    32    28    29   ar
    33    29    30   ar
    34    30    31   ar
    35    31    32   ar
    36    32    33   ar
    37    33    34   ar
    38    34    35   ar
    39    35    36   ar
    40    12     2   ar
    41    20    15   ar
    42    36    28   ar
    43    10     4   ar
    44    36    32   ar
    45    26    27    1
@<TRIPOS>MOLECULE
*****
 41 45 0 0 0
SMALL
GASTEIGER

@<TRIPOS>ATOM
      1 C          57.6112   94.3994   -4.1037 C.3     1  UNL1        0.0793
      2 C          59.5996   95.9726   -4.6706 C.ar    1  UNL1        0.1351
      3 C          61.0332   96.3731   -4.4846 C.ar    1  UNL1        0.0366
      4 C          61.9119   95.6007   -3.5458 C.ar    1  UNL1        0.0030
      5 C          63.3455   96.0011   -3.3598 C.ar    1  UNL1        0.0006
      6 C          64.2242   95.2288   -2.4210 C.ar    1  UNL1        0.0067
      7 C          63.6693   94.0560   -1.6682 C.ar    1  UNL1        0.0346
      8 BR         64.5480   93.2837   -0.7293 Br      1  UNL1       -0.0490
      9 C          62.2357   93.6556   -1.8541 C.ar    1  UNL1        0.0067
     10 C          61.3570   94.4279   -2.7929 C.ar    1  UNL1        0.0004
     11 C          59.9235   94.0275   -2.9789 C.ar    1  UNL1       -0.0009
     12 C          59.0448   94.7999   -3.9177 C.ar    1  UNL1        0.0182
     13 C          59.0845   96.8509   -7.0608 C.3     1  UNL1        0.2525
     14 O          58.7209   96.7450   -5.6094 O.3     1  UNL1       -0.4717
     15 C          57.2547   93.3212   -5.0837 C.ar    1  UNL1        0.0245
     16 C          57.8803   93.3102   -6.4470 C.ar    1  UNL1        0.0200
     17 C          57.5238   92.2320   -7.4270 C.ar    1  UNL1        0.1019
     18 N          56.5419   91.1648   -7.0436 N.ar    1  UNL1       -0.2076
     19 C          55.9164   91.1758   -5.6803 C.ar    1  UNL1        0.2598
     20 C          56.2729   92.2541   -4.7003 C.ar    1  UNL1        0.1879
     21 O          54.9345   90.1087   -5.2970 O.3     1  UNL1       -0.4541
     22 C          53.8799   89.6748   -6.2715 C.3     1  UNL1        0.2543
     23 O          55.6474   92.2651   -3.3370 O.3     1  UNL1       -0.4670
     24 C          55.5624   90.9968   -2.5406 C.3     1  UNL1        0.2527
     25 C          56.5341   95.0772   -3.3096 C.3     1  UNL1        0.1187
     26 O          55.5671   94.8593   -4.4354 O.3     1  UNL1       -0.3819
     27 H          55.8065   95.4300   -5.1823 H       1  UNL1        0.2107
     28 C          57.5012   95.2951   -2.1839 C.ar    1  UNL1        0.0369
     29 C          58.1420   96.6381   -1.9950 C.ar    1  UNL1        0.0010
     30 C          59.1091   96.8560   -0.8692 C.ar    1  UNL1       -0.0000
     31 C          59.4353   95.7309    0.0676 C.ar    1  UNL1        0.0031
     32 C          58.7944   94.3879   -0.1213 C.ar    1  UNL1        0.0375
     33 C          58.9205   93.1000    0.6373 C.ar    1  UNL1        0.0437
     34 C          58.0314   92.0861   -0.0197 C.ar    1  UNL1        0.1796
     35 O          57.3558   92.7475   -1.1842 O.2     1  UNL1       -0.4507
     36 C          57.8274   94.1700   -1.2470 C.ar    1  UNL1        0.1436
     37 C          55.4571   95.7550   -2.5156 C.3     1  UNL1        0.0492
     38 C          54.5294   96.7251   -3.1852 C.3     1  UNL1        0.0750
     39 N          53.1102   96.3313   -3.4696 N.3     1  UNL1       -0.2702
     40 C          52.2371   95.8209   -2.3618 C.3     1  UNL1        0.0897
     41 C          52.5641   96.4479   -4.8617 C.3     1  UNL1        0.0897
@<TRIPOS>BOND
     1    13    14    1
     2    14     2    1
     3     2     3   ar
     4     3     4   ar
     5     4     5   ar
     6     5     6   ar
     7     6     7   ar
     8     7     8    1
     9     7     9   ar
    10     9    10   ar
    11    10    11   ar
    12    11    12   ar
    13     1    12    1
    14     1    15    1
    15    15    16   ar
    16    16    17   ar
    17    17    18   ar
    18    18    19   ar
    19    19    21    1
    20    21    22    1
    21    19    20   ar
    22    20    23    1
    23    23    24    1
    24     1    25    1
    25    25    26    1
    26    25    37    1
    27    37    38    1
    28    38    39    1
    29    39    40    1
    30    39    41    1
    31    25    28    1
    32    28    29   ar
    33    29    30   ar
    34    30    31   ar
    35    31    32   ar
    36    32    33   ar
    37    33    34   ar
    38    34    35   ar
    39    35    36   ar
    40    12     2   ar
    41    20    15   ar
    42    36    28   ar
    43    10     4   ar
    44    36    32   ar
    45    26    27    1
@<TRIPOS>MOLECULE
*****
 41 45 0 0 0
SMALL
GASTEIGER

@<TRIPOS>ATOM
      1 C          60.0441   95.6221   -2.6247 C.3     1  UNL1        0.0793
      2 C          59.6416   94.3825   -4.8722 C.ar    1  UNL1        0.1351
      3 C          58.7742   94.1006   -6.0631 C.ar    1  UNL1        0.0366
      4 C          57.4418   94.7764   -6.1973 C.ar    1  UNL1        0.0030
      5 C          56.5744   94.4946   -7.3881 C.ar    1  UNL1        0.0006
      6 C          55.2420   95.1704   -7.5223 C.ar    1  UNL1        0.0067
      7 C          54.7770   96.1281   -6.4656 C.ar    1  UNL1        0.0346
      8 BR         53.4447   96.8039   -6.5998 Br      1  UNL1       -0.0490
      9 C          55.6445   96.4100   -5.2747 C.ar    1  UNL1        0.0067
     10 C          56.9769   95.7342   -5.1406 C.ar    1  UNL1        0.0004
     11 C          57.8443   96.0160   -3.9497 C.ar    1  UNL1       -0.0009
     12 C          59.1767   95.3402   -3.8156 C.ar    1  UNL1        0.0182
     13 C          62.0327   93.9226   -5.7787 C.3     1  UNL1        0.2525
     14 O          60.9740   93.7067   -4.7381 O.3     1  UNL1       -0.4717
     15 C          61.5244   95.7910   -2.7983 C.ar    1  UNL1        0.0245
     16 C          62.0560   96.6686   -3.8926 C.ar    1  UNL1        0.0200
     17 C          63.5363   96.8376   -4.0661 C.ar    1  UNL1        0.1019
     18 N          64.4851   96.1289   -3.1454 N.ar    1  UNL1       -0.2076
     19 C          63.9535   95.2514   -2.0512 C.ar    1  UNL1        0.2598
     20 C          62.4732   95.0824   -1.8776 C.ar    1  UNL1        0.1879
     21 O          64.9023   94.5427   -1.1306 O.3     1  UNL1       -0.4541
     22 C          65.2153   95.1241    0.2163 C.3     1  UNL1        0.2543
     23 O          61.9417   94.2049   -0.7834 O.3     1  UNL1       -0.4670
     24 C          62.0274   92.7127   -0.9103 C.3     1  UNL1        0.2527
     25 C          59.4312   95.7351   -1.2603 C.3     1  UNL1        0.1187
     26 O          60.3831   96.8447   -0.9246 O.3     1  UNL1       -0.3819
     27 H          61.2793   96.4851   -0.8324 H       1  UNL1        0.2107
     28 C          58.4793   94.6256   -1.5960 C.ar    1  UNL1        0.0369
     29 C          59.0047   93.2567   -1.9125 C.ar    1  UNL1        0.0010
     30 C          58.0527   92.1471   -2.2483 C.ar    1  UNL1       -0.0000
     31 C          56.5755   92.4064   -2.2675 C.ar    1  UNL1        0.0031
     32 C          56.0501   93.7753   -1.9510 C.ar    1  UNL1        0.0375
     33 C          54.6563   94.3265   -1.8915 C.ar    1  UNL1        0.0437
     34 C          54.7468   95.7767   -1.5190 C.ar    1  UNL1        0.1796
     35 O          56.1966   96.1218   -1.3483 O.2     1  UNL1       -0.4507
     36 C          57.0020   94.8849   -1.6153 C.ar    1  UNL1        0.1436
     37 C          58.8184   95.8481    0.1040 C.3     1  UNL1        0.0492
     38 C          59.6472   96.3198    1.2619 C.3     1  UNL1        0.0750
     39 N          60.7045   95.4268    1.8404 N.3     1  UNL1       -0.2702
     40 C          62.1144   95.9218    1.9723 C.3     1  UNL1        0.0897
     41 C          60.3521   94.0390    2.2870 C.3     1  UNL1        0.0897
@<TRIPOS>BOND
     1    13    14    1
     2    14     2    1
     3     2     3   ar
     4     3     4   ar
     5     4     5   ar
     6     5     6   ar
     7     6     7   ar
     8     7     8    1
     9     7     9   ar
    10     9    10   ar
    11    10    11   ar
    12    11    12   ar
    13     1    12    1
    14     1    15    1
    15    15    16   ar
    16    16    17   ar
    17    17    18   ar
    18    18    19   ar
    19    19    21    1
    20    21    22    1
    21    19    20   ar
    22    20    23    1
    23    23    24    1
    24     1    25    1
    25    25    26    1
    26    25    37    1
    27    37    38    1
    28    38    39    1
    29    39    40    1
    30    39    41    1
    31    25    28    1
    32    28    29   ar
    33    29    30   ar
    34    30    31   ar
    35    31    32   ar
    36    32    33   ar
    37    33    34   ar
    38    34    35   ar
    39    35    36   ar
    40    12     2   ar
    41    20    15   ar
    42    36    28   ar
    43    10     4   ar
    44    36    32   ar
    45    26    27    1
@<TRIPOS>MOLECULE
*****
 41 45 0 0 0
SMALL
GASTEIGER

@<TRIPOS>ATOM
      1 C          63.1560   88.7819   12.1073 C.3     1  UNL1        0.0793
      2 C          60.7554   88.6390   11.1239 C.ar    1  UNL1        0.1351
      3 C          59.7983   88.0892   10.1081 C.ar    1  UNL1        0.0366
      4 C          60.2846   87.1327    9.0600 C.ar    1  UNL1        0.0030
      5 C          59.3275   86.5830    8.0443 C.ar    1  UNL1        0.0006
      6 C          59.8138   85.6265    6.9961 C.ar    1  UNL1        0.0067
      7 C          61.2572   85.2197    6.9637 C.ar    1  UNL1        0.0346
      8 BR         61.7435   84.2632    5.9156 Br      1  UNL1       -0.0490
      9 C          62.2144   85.7694    7.9795 C.ar    1  UNL1        0.0067
     10 C          61.7280   86.7259    9.0276 C.ar    1  UNL1        0.0004
     11 C          62.6851   87.2757   10.0434 C.ar    1  UNL1       -0.0009
     12 C          62.1988   88.2322   11.0915 C.ar    1  UNL1        0.0182
     13 C          59.1057   90.4970   11.8828 C.3     1  UNL1        0.2525
     14 O          60.2691   89.5955   12.1721 O.3     1  UNL1       -0.4717
     15 C          63.7264   87.8828   13.1638 C.ar    1  UNL1        0.0245
     16 C          64.7450   88.4124   14.1293 C.ar    1  UNL1        0.0200
     17 C          65.3154   87.5134   15.1859 C.ar    1  UNL1        0.1019
     18 N          64.8673   86.0847   15.2770 N.ar    1  UNL1       -0.2076
     19 C          63.8487   85.5552   14.3115 C.ar    1  UNL1        0.2598
     20 C          63.2783   86.4543   13.2550 C.ar    1  UNL1        0.1879
     21 O          63.4006   84.1267   14.4027 O.3     1  UNL1       -0.4541
     22 C          62.4042   83.7183   15.4469 C.3     1  UNL1        0.2543
     23 O          62.2597   85.9248   12.2895 O.3     1  UNL1       -0.4670
     24 C          62.4013   84.5380   11.7355 C.3     1  UNL1        0.2527
     25 C          63.5427   90.2306   12.0664 C.3     1  UNL1        0.1187
     26 O          63.6700   90.1545   10.5738 O.3     1  UNL1       -0.3819
     27 H          64.4459   89.6205   10.3423 H       1  UNL1        0.2107
     28 C          63.4154   90.3066   13.5591 C.ar    1  UNL1        0.0369
     29 C          62.3155   89.5628   14.2569 C.ar    1  UNL1        0.0010
     30 C          62.1883   89.6388   15.7496 C.ar    1  UNL1       -0.0000
     31 C          63.1609   90.4587   16.5444 C.ar    1  UNL1        0.0031
     32 C          64.2608   91.2026   15.8466 C.ar    1  UNL1        0.0375
     33 C          65.3594   92.0847   16.3611 C.ar    1  UNL1        0.0437
     34 C          66.1657   92.5539   15.1864 C.ar    1  UNL1        0.1796
     35 O          65.5653   91.9617   13.9459 O.2     1  UNL1       -0.4507
     36 C          64.3880   91.1265   14.3540 C.ar    1  UNL1        0.1436
     37 C          63.9294   91.6793   12.0256 C.3     1  UNL1        0.0492
     38 C          64.5116   92.2651   10.7735 C.3     1  UNL1        0.0750
     39 N          65.8039   93.0246   10.8312 N.3     1  UNL1       -0.2702
     40 C          65.8121   94.4583   11.2720 C.3     1  UNL1        0.0897
     41 C          67.0878   92.3503   10.4482 C.3     1  UNL1        0.0897
@<TRIPOS>BOND
     1    13    14    1
     2    14     2    1
     3     2     3   ar
     4     3     4   ar
     5     4     5   ar
     6     5     6   ar
     7     6     7   ar
     8     7     8    1
     9     7     9   ar
    10     9    10   ar
    11    10    11   ar
    12    11    12   ar
    13     1    12    1
    14     1    15    1
    15    15    16   ar
    16    16    17   ar
    17    17    18   ar
    18    18    19   ar
    19    19    21    1
    20    21    22    1
    21    19    20   ar
    22    20    23    1
    23    23    24    1
    24     1    25    1
    25    25    26    1
    26    25    37    1
    27    37    38    1
    28    38    39    1
    29    39    40    1
    30    39    41    1
    31    25    28    1
    32    28    29   ar
    33    29    30   ar
    34    30    31   ar
    35    31    32   ar
    36    32    33   ar
    37    33    34   ar
    38    34    35   ar
    39    35    36   ar
    40    12     2   ar
    41    20    15   ar
    42    36    28   ar
    43    10     4   ar
    44    36    32   ar
    45    26    27    1
@<TRIPOS>MOLECULE
*****
 41 45 0 0 0
SMALL
GASTEIGER

@<TRIPOS>ATOM
      1 C          61.0117   95.2198   -1.5856 C.3     1  UNL1        0.0793
      2 C          60.6640   93.7814   -3.7211 C.ar    1  UNL1        0.1351
      3 C          59.8985   93.4834   -4.9762 C.ar    1  UNL1        0.0366
      4 C          58.7154   94.3258   -5.3510 C.ar    1  UNL1        0.0030
      5 C          57.9499   94.0279   -6.6061 C.ar    1  UNL1        0.0006
      6 C          56.7668   94.8703   -6.9809 C.ar    1  UNL1        0.0067
      7 C          56.3491   96.0107   -6.1006 C.ar    1  UNL1        0.0346
      8 BR         55.1660   96.8532   -6.4754 Br      1  UNL1       -0.0490
      9 C          57.1146   96.3087   -4.8455 C.ar    1  UNL1        0.0067
     10 C          58.2977   95.4663   -4.4707 C.ar    1  UNL1        0.0004
     11 C          59.0631   95.7643   -3.2156 C.ar    1  UNL1       -0.0009
     12 C          60.2463   94.9218   -2.8408 C.ar    1  UNL1        0.0182
     13 C          63.0788   92.9526   -4.2023 C.3     1  UNL1        0.2525
     14 O          61.8471   92.9390   -3.3463 O.3     1  UNL1       -0.4717
     15 C          62.5090   95.3029   -1.6221 C.ar    1  UNL1        0.0245
     16 C          63.3228   94.6520   -0.5432 C.ar    1  UNL1        0.0200
     17 C          64.8200   94.7351   -0.5797 C.ar    1  UNL1        0.1019
     18 N          65.5035   95.4690   -1.6952 N.ar    1  UNL1       -0.2076
     19 C          64.6897   96.1199   -2.7741 C.ar    1  UNL1        0.2598
     20 C          63.1924   96.0368   -2.7376 C.ar    1  UNL1        0.1879
     21 O          65.3731   96.8538   -3.8895 O.3     1  UNL1       -0.4541
     22 C          65.9927   96.0892   -5.0215 C.3     1  UNL1        0.2543
     23 O          62.3786   96.6877   -3.8165 O.3     1  UNL1       -0.4670
     24 C          62.5758   96.2883   -5.2489 C.3     1  UNL1        0.2527
     25 C          60.2799   95.4348   -0.2941 C.3     1  UNL1        0.1187
     26 O          61.2731   96.4901    0.0931 O.3     1  UNL1       -0.3819
     27 H          62.1277   96.0742    0.2871 H       1  UNL1        0.2107
     28 C          59.2867   94.3795   -0.6812 C.ar    1  UNL1        0.0369
     29 C          59.7088   92.9418   -0.7510 C.ar    1  UNL1        0.0010
     30 C          58.7156   91.8865   -1.1382 C.ar    1  UNL1       -0.0000
     31 C          57.3003   92.2689   -1.4554 C.ar    1  UNL1        0.0031
     32 C          56.8782   93.7066   -1.3856 C.ar    1  UNL1        0.0375
     33 C          55.5624   94.3799   -1.6411 C.ar    1  UNL1        0.0437
     34 C          55.7424   95.8513   -1.4118 C.ar    1  UNL1        0.1796
     35 O          57.1694   96.0874   -1.0147 O.2     1  UNL1       -0.4507
     36 C          57.8714   94.7619   -0.9985 C.ar    1  UNL1        0.1436
     37 C          59.5481   95.6497    0.9975 C.3     1  UNL1        0.0492
     38 C          60.1769   95.2333    2.2941 C.3     1  UNL1        0.0750
     39 N          60.5054   93.7903    2.5391 N.3     1  UNL1       -0.2702
     40 C          59.4385   92.8483    3.0127 C.3     1  UNL1        0.0897
     41 C          61.9007   93.2895    2.3105 C.3     1  UNL1        0.0897
@<TRIPOS>BOND
     1    13    14    1
     2    14     2    1
     3     2     3   ar
     4     3     4   ar
     5     4     5   ar
     6     5     6   ar
     7     6     7   ar
     8     7     8    1
     9     7     9   ar
    10     9    10   ar
    11    10    11   ar
    12    11    12   ar
    13     1    12    1
    14     1    15    1
    15    15    16   ar
    16    16    17   ar
    17    17    18   ar
    18    18    19   ar
    19    19    21    1
    20    21    22    1
    21    19    20   ar
    22    20    23    1
    23    23    24    1
    24     1    25    1
    25    25    26    1
    26    25    37    1
    27    37    38    1
    28    38    39    1
    29    39    40    1
    30    39    41    1
    31    25    28    1
    32    28    29   ar
    33    29    30   ar
    34    30    31   ar
    35    31    32   ar
    36    32    33   ar
    37    33    34   ar
    38    34    35   ar
    39    35    36   ar
    40    12     2   ar
    41    20    15   ar
    42    36    28   ar
    43    10     4   ar
    44    36    32   ar
    45    26    27    1
