@<TRIPOS>MOLECULE
*****
 46 50 0 0 0
SMALL
GASTEIGER

@<TRIPOS>ATOM
      1 C          62.4917   86.4634   11.2332 C.3     1  UNL1        0.1696
      2 C          62.7475   85.2412   12.0644 C.3     1  UNL1        0.1274
      3 N          63.0622   85.1550   13.5284 N.am    1  UNL1       -0.2518
      4 C          63.2673   83.7711   14.0696 C.2     1  UNL1        0.2528
      5 O          63.5869   83.5733   15.5218 O.2     1  UNL1       -0.2696
      6 C          63.1990   86.2695   14.5230 C.ar    1  UNL1        0.0678
      7 C          63.5222   85.7466   15.8912 C.ar    1  UNL1        0.0162
      8 C          63.7011   86.6998   17.0354 C.ar    1  UNL1        0.0014
      9 C          63.5569   88.1759   16.8115 C.ar    1  UNL1        0.0014
     10 C          63.2337   88.6989   15.4433 C.ar    1  UNL1        0.0162
     11 C          63.0548   87.7457   14.2990 C.ar    1  UNL1        0.0679
     12 N          62.7382   88.4718   13.0252 N.am    1  UNL1       -0.2517
     13 C          62.4876   87.9012   11.6608 C.2     1  UNL1        0.2493
     14 O          62.1941   88.9004   10.5813 O.2     1  UNL1       -0.2727
     15 C          63.1529   82.5849   13.1585 C.ar    1  UNL1        0.0539
     16 C          62.5427   81.3099   13.6604 C.ar    1  UNL1        0.0046
     17 C          62.4282   80.1238   12.7495 C.ar    1  UNL1        0.0030
     18 C          62.9240   80.2127   11.3365 C.ar    1  UNL1        0.0347
     19 C          63.5342   81.4877   10.8347 C.ar    1  UNL1        0.0030
     20 C          63.6487   82.6738   11.7456 C.ar    1  UNL1        0.0046
     21 C          62.8096   79.0265   10.4255 C.2     1  UNL1        0.1735
     22 C          62.7905   77.6401   10.9981 C.3     1  UNL1        0.0773
     23 O          62.7142   79.2267    8.9420 O.2     1  UNL1       -0.2913
     24 C          60.8180   86.4328    9.2464 C.2     1  UNL1        0.2371
     25 O          59.7240   86.8989   10.1608 O.2     1  UNL1       -0.2737
     26 N          62.2018   86.2150    9.7826 N.am    1  UNL1       -0.2959
     27 H          62.9198   85.9091    9.1825 H       1  UNL1        0.1499
     28 C          60.5281   86.1843    7.7958 C.3     1  UNL1        0.1316
     29 C          61.3815   85.2310    7.0129 C.3     1  UNL1        0.0270
     30 C          59.2492   88.3784    7.2473 C.3     1  UNL1        0.0862
     31 N          59.3848   86.8893    7.1280 N.3     1  UNL1       -0.2902
     32 H          59.4501   86.6784    6.1322 H       1  UNL1        0.1237
     33 C          62.6621   89.9662   13.1297 C.3     1  UNL1        0.1278
     34 C          63.6296   90.8217   12.3666 C.ar    1  UNL1        0.0320
     35 C          63.2851   91.2939   10.9852 C.ar    1  UNL1        0.1363
     36 C          64.2526   92.1494   10.2220 C.ar    1  UNL1        0.0366
     37 C          65.5643   92.5326   10.8404 C.ar    1  UNL1        0.0031
     38 C          65.9087   92.0604   12.2219 C.ar    1  UNL1        0.0004
     39 C          67.2205   92.4436   12.8402 C.ar    1  UNL1        0.0067
     40 C          67.5648   91.9714   14.2217 C.ar    1  UNL1        0.0346
     41 BR         68.8766   92.3546   14.8400 Br      1  UNL1       -0.0490
     42 C          66.5974   91.1159   14.9848 C.ar    1  UNL1        0.0067
     43 C          65.2857   90.7327   14.3664 C.ar    1  UNL1        0.0003
     44 C          64.9413   91.2049   12.9850 C.ar    1  UNL1        0.0006
     45 O          61.9734   90.9107   10.3668 O.3     1  UNL1       -0.4717
     46 C          60.5499   90.9428   10.8386 C.3     1  UNL1        0.2525
@<TRIPOS>BOND
     1    30    31    1
     2    31    28    1
     3    28    29    1
     4    28    24    1
     5    24    25    2
     6    24    26   am
     7     1    26    1
     8     1     2    1
     9     2     3    1
    10     3     4   am
    11     4     5    2
    12     4    15    1
    13    15    16   ar
    14    16    17   ar
    15    17    18   ar
    16    18    21    1
    17    21    22    1
    18    21    23    2
    19    18    19   ar
    20    19    20   ar
    21     3     6    1
    22     6     7   ar
    23     7     8   ar
    24     8     9   ar
    25     9    10   ar
    26    10    11   ar
    27    11    12    1
    28    12    33    1
    29    33    34    1
    30    34    35   ar
    31    35    45    1
    32    45    46    1
    33    35    36   ar
    34    36    37   ar
    35    37    38   ar
    36    38    39   ar
    37    39    40   ar
    38    40    41    1
    39    40    42   ar
    40    42    43   ar
    41    43    44   ar
    42    12    13   am
    43    13    14    2
    44    13     1    1
    45    20    15   ar
    46    11     6   ar
    47    44    34   ar
    48    44    38   ar
    49    31    32    1
    50    26    27    1
@<TRIPOS>MOLECULE
*****
 46 50 0 0 0
SMALL
GASTEIGER

@<TRIPOS>ATOM
      1 C          63.5108   91.0857   11.1101 C.3     1  UNL1        0.1696
      2 C          63.7434   91.0190   12.5905 C.3     1  UNL1        0.1274
      3 N          62.8344   90.4833   13.6567 N.am    1  UNL1       -0.2518
      4 C          63.3611   90.5588   15.0592 C.2     1  UNL1        0.2528
      5 O          62.5312   90.0502   16.2005 O.2     1  UNL1       -0.2696
      6 C          61.4685   89.8820   13.5060 C.ar    1  UNL1        0.0678
      7 C          60.9013   89.4709   14.8324 C.ar    1  UNL1        0.0162
      8 C          59.5398   88.8457   14.9045 C.ar    1  UNL1        0.0014
      9 C          58.7454   88.6317   13.6503 C.ar    1  UNL1        0.0014
     10 C          59.3125   89.0428   12.3239 C.ar    1  UNL1        0.0162
     11 C          60.6741   89.6679   12.2518 C.ar    1  UNL1        0.0679
     12 N          61.0495   90.0023   10.8385 N.am    1  UNL1       -0.2517
     13 C          62.3119   90.6332   10.3303 C.2     1  UNL1        0.2493
     14 O          62.3851   90.8389    8.8464 O.2     1  UNL1       -0.2727
     15 C          64.7178   91.1431   15.3204 C.ar    1  UNL1        0.0539
     16 C          64.8962   92.1737   16.3955 C.ar    1  UNL1        0.0046
     17 C          66.2528   92.7579   16.6567 C.ar    1  UNL1        0.0030
     18 C          67.4310   92.3114   15.8428 C.ar    1  UNL1        0.0347
     19 C          67.2526   91.2808   14.7677 C.ar    1  UNL1        0.0030
     20 C          65.8960   90.6966   14.5065 C.ar    1  UNL1        0.0046
     21 C          68.7877   92.8957   16.1040 C.2     1  UNL1        0.1735
     22 C          69.0640   94.3308   15.7660 C.3     1  UNL1        0.0773
     23 O          69.8680   92.0448   16.7032 O.2     1  UNL1       -0.2913
     24 C          65.5204   92.7204   10.9132 C.2     1  UNL1        0.2371
     25 O          65.3030   93.1586   12.3312 O.2     1  UNL1       -0.2737
     26 N          64.6244   91.6840   10.3026 N.am    1  UNL1       -0.2959
     27 H          64.7671   91.3964    9.3720 H       1  UNL1        0.1499
     28 C          66.6340   93.3187   10.1057 C.3     1  UNL1        0.1316
     29 C          67.9487   92.6047    9.9964 C.3     1  UNL1        0.0270
     30 C          67.6066   95.3520    8.8135 C.3     1  UNL1        0.0862
     31 N          66.4330   94.6311    9.4077 N.3     1  UNL1       -0.2902
     32 H          65.7752   94.4621    8.6467 H       1  UNL1        0.1237
     33 C          60.0272   89.6604    9.7954 C.3     1  UNL1        0.1278
     34 C          60.1522   88.3877    9.0114 C.ar    1  UNL1        0.0320
     35 C          59.4705   88.2560    7.6818 C.ar    1  UNL1        0.1363
     36 C          59.5954   86.9833    6.8977 C.ar    1  UNL1        0.0366
     37 C          60.4020   85.8424    7.4433 C.ar    1  UNL1        0.0031
     38 C          61.0837   85.9741    8.7730 C.ar    1  UNL1        0.0004
     39 C          61.8903   84.8332    9.3186 C.ar    1  UNL1        0.0067
     40 C          62.5719   84.9650   10.6483 C.ar    1  UNL1        0.0346
     41 BR         63.3785   83.8241   11.1939 Br      1  UNL1       -0.0490
     42 C          62.4470   86.2377   11.4323 C.ar    1  UNL1        0.0067
     43 C          61.6404   87.3786   10.8866 C.ar    1  UNL1        0.0003
     44 C          60.9588   87.2468    9.5571 C.ar    1  UNL1        0.0006
     45 O          58.6639   89.3969    7.1361 O.3     1  UNL1       -0.4717
     46 C          58.8144   90.3081    5.9542 C.3     1  UNL1        0.2525
@<TRIPOS>BOND
     1    30    31    1
     2    31    28    1
     3    28    29    1
     4    28    24    1
     5    24    25    2
     6    24    26   am
     7     1    26    1
     8     1     2    1
     9     2     3    1
    10     3     4   am
    11     4     5    2
    12     4    15    1
    13    15    16   ar
    14    16    17   ar
    15    17    18   ar
    16    18    21    1
    17    21    22    1
    18    21    23    2
    19    18    19   ar
    20    19    20   ar
    21     3     6    1
    22     6     7   ar
    23     7     8   ar
    24     8     9   ar
    25     9    10   ar
    26    10    11   ar
    27    11    12    1
    28    12    33    1
    29    33    34    1
    30    34    35   ar
    31    35    45    1
    32    45    46    1
    33    35    36   ar
    34    36    37   ar
    35    37    38   ar
    36    38    39   ar
    37    39    40   ar
    38    40    41    1
    39    40    42   ar
    40    42    43   ar
    41    43    44   ar
    42    12    13   am
    43    13    14    2
    44    13     1    1
    45    20    15   ar
    46    11     6   ar
    47    44    34   ar
    48    44    38   ar
    49    31    32    1
    50    26    27    1
@<TRIPOS>MOLECULE
*****
 46 50 0 0 0
SMALL
GASTEIGER

@<TRIPOS>ATOM
      1 C          61.8674   86.4390   10.9080 C.3     1  UNL1        0.1696
      2 C          62.6022   85.2724   11.4989 C.3     1  UNL1        0.1274
      3 N          63.5615   85.2583   12.6520 N.am    1  UNL1       -0.2518
      4 C          64.1352   83.9180   13.0049 C.2     1  UNL1        0.2528
      5 O          65.1050   83.7932   14.1425 O.2     1  UNL1       -0.2696
      6 C          64.0230   86.4072   13.4988 C.ar    1  UNL1        0.0678
      7 C          64.9912   85.9571   14.5524 C.ar    1  UNL1        0.0162
      8 C          65.5755   86.9539   15.5089 C.ar    1  UNL1        0.0014
      9 C          65.1916   88.4007   15.4118 C.ar    1  UNL1        0.0014
     10 C          64.2234   88.8507   14.3583 C.ar    1  UNL1        0.0162
     11 C          63.6391   87.8540   13.4018 C.ar    1  UNL1        0.0679
     12 N          62.6989   88.5092   12.4339 N.am    1  UNL1       -0.2517
     13 C          61.9104   87.8795   11.3240 C.2     1  UNL1        0.2493
     14 O          61.0514   88.8138   10.5246 O.2     1  UNL1       -0.2727
     15 C          63.7392   82.7025   12.2201 C.ar    1  UNL1        0.0539
     16 C          63.0084   81.5796   12.8946 C.ar    1  UNL1        0.0046
     17 C          62.6124   80.3641   12.1100 C.ar    1  UNL1        0.0030
     18 C          62.9473   80.2715   10.6507 C.ar    1  UNL1        0.0347
     19 C          63.6781   81.3944    9.9763 C.ar    1  UNL1        0.0030
     20 C          64.0741   82.6099   10.7609 C.ar    1  UNL1        0.0046
     21 C          62.5513   79.0560    9.8660 C.2     1  UNL1        0.1735
     22 C          62.9315   77.6902   10.3562 C.3     1  UNL1        0.0773
     23 O          61.7752   79.2063    8.5912 O.2     1  UNL1       -0.2913
     24 C          61.5639   85.7241    8.4287 C.2     1  UNL1        0.2371
     25 O          63.0532   85.6405    8.2705 O.2     1  UNL1       -0.2737
     26 N          60.9710   86.1233    9.7474 N.am    1  UNL1       -0.2959
     27 H          59.9935   86.1781    9.8513 H       1  UNL1        0.1499
     28 C          60.6675   85.4084    7.2682 C.3     1  UNL1        0.1316
     29 C          61.1752   84.5656    6.1359 C.3     1  UNL1        0.0270
     30 C          58.9959   87.3749    7.5659 C.3     1  UNL1        0.0862
     31 N          59.2634   85.9354    7.2399 N.3     1  UNL1       -0.2902
     32 H          58.9080   85.7760    6.2972 H       1  UNL1        0.1237
     33 C          62.5241   89.9899   12.5975 C.3     1  UNL1        0.1278
     34 C          63.5856   90.7994   13.2819 C.ar    1  UNL1        0.0320
     35 C          63.6349   90.8579   14.7799 C.ar    1  UNL1        0.1363
     36 C          64.6962   91.6674   15.4643 C.ar    1  UNL1        0.0366
     37 C          65.7082   92.4183   14.6506 C.ar    1  UNL1        0.0031
     38 C          65.6588   92.3598   13.1525 C.ar    1  UNL1        0.0004
     39 C          66.6708   93.1107   12.3388 C.ar    1  UNL1        0.0067
     40 C          66.6213   93.0521   10.8408 C.ar    1  UNL1        0.0346
     41 BR         67.6333   93.8030   10.0271 Br      1  UNL1       -0.0490
     42 C          65.5600   92.2427   10.1564 C.ar    1  UNL1        0.0067
     43 C          64.5481   91.4918   10.9702 C.ar    1  UNL1        0.0003
     44 C          64.5975   91.5503   12.4681 C.ar    1  UNL1        0.0006
     45 O          62.6230   90.1070   15.5936 O.3     1  UNL1       -0.4717
     46 C          62.6808   89.3483   16.8863 C.3     1  UNL1        0.2525
@<TRIPOS>BOND
     1    30    31    1
     2    31    28    1
     3    28    29    1
     4    28    24    1
     5    24    25    2
     6    24    26   am
     7     1    26    1
     8     1     2    1
     9     2     3    1
    10     3     4   am
    11     4     5    2
    12     4    15    1
    13    15    16   ar
    14    16    17   ar
    15    17    18   ar
    16    18    21    1
    17    21    22    1
    18    21    23    2
    19    18    19   ar
    20    19    20   ar
    21     3     6    1
    22     6     7   ar
    23     7     8   ar
    24     8     9   ar
    25     9    10   ar
    26    10    11   ar
    27    11    12    1
    28    12    33    1
    29    33    34    1
    30    34    35   ar
    31    35    45    1
    32    45    46    1
    33    35    36   ar
    34    36    37   ar
    35    37    38   ar
    36    38    39   ar
    37    39    40   ar
    38    40    41    1
    39    40    42   ar
    40    42    43   ar
    41    43    44   ar
    42    12    13   am
    43    13    14    2
    44    13     1    1
    45    20    15   ar
    46    11     6   ar
    47    44    34   ar
    48    44    38   ar
    49    31    32    1
    50    26    27    1
