@<TRIPOS>MOLECULE
*****
 42 46 0 0 0
SMALL
GASTEIGER

@<TRIPOS>ATOM
      1 C          63.0699   90.6640   11.3019 C.3     1  UNL1        0.1164
      2 C          63.2656   91.5177   10.0843 C.3     1  UNL1        0.0213
      3 C          64.3563   92.5472   10.0574 C.3     1  UNL1        0.0033
      4 C          65.2512   92.7228   11.2484 C.3     1  UNL1        0.0223
      5 C          65.0555   91.8691   12.4660 C.3     1  UNL1        0.1019
      6 N          63.9648   90.8397   12.4928 N.3     1  UNL1       -0.1508
      7 C          65.9504   92.0447   13.6570 C.ar    1  UNL1       -0.0017
      8 C          67.4404   92.0123   13.4867 C.ar    1  UNL1        0.0269
      9 C          68.3353   92.1879   14.6776 C.ar    1  UNL1        0.1421
     10 F          69.8253   92.1555   14.5073 F       1  UNL1       -0.2041
     11 C          67.7403   92.3959   16.0387 C.ar    1  UNL1        0.0592
     12 C          66.2504   92.4282   16.2090 C.ar    1  UNL1        0.1421
     13 F          65.6554   92.6362   17.5701 F       1  UNL1       -0.2041
     14 C          65.3554   92.2526   15.0181 C.ar    1  UNL1        0.0269
     15 C          61.9792   89.6346   11.3287 C.3     1  UNL1        0.1525
     16 C          60.7795   90.5221   11.1772 C.3     1  UNL1        0.0452
     17 C          60.6035   89.0374   11.2996 C.3     1  UNL1        0.0452
     18 O          62.8001   88.3895   11.4896 O.3     1  UNL1       -0.4404
     19 N          62.6125   83.0417   12.2744 N.3     1  UNL1       -0.2699
     20 C          62.3601   83.2565   10.8115 C.3     1  UNL1        0.0940
     21 C          62.3439   84.6473   10.2496 C.3     1  UNL1        0.1141
     22 N          62.5801   85.8230   11.1506 N.am    1  UNL1       -0.2432
     23 C          62.5639   87.2137   10.5886 C.2     1  UNL1        0.4048
     24 O          62.3115   87.4286    9.1257 O.2     1  UNL1       -0.2262
     25 C          62.8325   85.6081   12.6135 C.3     1  UNL1        0.1141
     26 C          62.8487   84.2174   13.1754 C.3     1  UNL1        0.0940
     27 C          62.2920   82.1954   14.1929 C.3     1  UNL1        0.0186
     28 C          62.6287   81.6510   12.8364 C.3     1  UNL1        0.0726
     29 C          62.9655   81.1067   11.4799 C.3     1  UNL1        0.0186
     30 C          62.6449   80.2604   13.3984 C.3     1  UNL1        0.1516
     31 O          63.6230   79.8985   14.4766 O.3     1  UNL1       -0.3806
     32 H          64.5250   79.9409   14.1223 H       1  UNL1        0.2105
     33 S          63.7690   89.9858   13.7105 S.O2    1  UNL1        0.0636
     34 O          64.5917   88.9348   13.5083 O.2     1  UNL1       -0.1528
     35 O          62.7780   90.9766   14.2458 O.2     1  UNL1       -0.1528
     36 C          63.5732   89.1321   14.9282 C.ar    1  UNL1        0.1223
     37 C          63.0389   89.7391   16.1916 C.ar    1  UNL1        0.0208
     38 C          62.8430   88.8853   17.4093 C.ar    1  UNL1        0.0128
     39 C          63.1814   87.4247   17.3637 C.ar    1  UNL1        0.0578
     40 CL         62.9855   86.5710   18.5813 Cl      1  UNL1       -0.0822
     41 C          63.7156   86.8178   16.1003 C.ar    1  UNL1        0.0128
     42 C          63.9116   87.6715   14.8825 C.ar    1  UNL1        0.0208
@<TRIPOS>BOND
     1    27    28    1
     2    28    29    1
     3    28    30    1
     4    30    31    1
     5    28    19    1
     6    19    20    1
     7    20    21    1
     8    21    22    1
     9    22    23   am
    10    23    24    2
    11    23    18    1
    12    18    15    1
    13     1    15    1
    14     1     2    1
    15     2     3    1
    16     3     4    1
    17     4     5    1
    18     5     7    1
    19     7     8   ar
    20     8     9   ar
    21     9    10    1
    22     9    11   ar
    23    11    12   ar
    24    12    13    1
    25    12    14   ar
    26     5     6    1
    27     6    33    1
    28    33    34    2
    29    33    35    2
    30    33    36    1
    31    36    37   ar
    32    37    38   ar
    33    38    39   ar
    34    39    40    1
    35    39    41   ar
    36    41    42   ar
    37    15    16    1
    38    16    17    1
    39    22    25    1
    40    25    26    1
    41    26    19    1
    42    17    15    1
    43     6     1    1
    44    42    36   ar
    45    14     7   ar
    46    31    32    1
@<TRIPOS>MOLECULE
*****
 42 46 0 0 0
SMALL
GASTEIGER

@<TRIPOS>ATOM
      1 C          63.6897   90.4534   13.1590 C.3     1  UNL1        0.1164
      2 C          62.5372   89.9911   12.3176 C.3     1  UNL1        0.0213
      3 C          62.4172   90.4479   10.8939 C.3     1  UNL1        0.0033
      4 C          63.4498   91.3670   10.3116 C.3     1  UNL1        0.0223
      5 C          64.6023   91.8293   11.1530 C.3     1  UNL1        0.1019
      6 N          64.7223   91.3726   12.5767 N.3     1  UNL1       -0.1508
      7 C          65.6348   92.7484   10.5707 C.ar    1  UNL1       -0.0017
      8 C          65.3364   94.2105   10.4174 C.ar    1  UNL1        0.0269
      9 C          66.3689   95.1296    9.8352 C.ar    1  UNL1        0.1421
     10 F          66.0705   96.5917    9.6819 F       1  UNL1       -0.2041
     11 C          67.6998   94.5869    9.4063 C.ar    1  UNL1        0.0592
     12 C          67.9983   93.1249    9.5596 C.ar    1  UNL1        0.1421
     13 F          69.3292   92.5821    9.1307 F       1  UNL1       -0.2041
     14 C          66.9657   92.2057   10.1418 C.ar    1  UNL1        0.0269
     15 C          63.8097   89.9966   14.5827 C.3     1  UNL1        0.1525
     16 C          63.4284   91.2605   15.2948 C.3     1  UNL1        0.0452
     17 C          63.7829   90.0338   16.0821 C.3     1  UNL1        0.0452
     18 O          64.2327   88.5741   14.3651 O.3     1  UNL1       -0.4404
     19 N          63.1590   83.3150   13.7020 N.3     1  UNL1       -0.2699
     20 C          62.8409   83.6272   15.1342 C.3     1  UNL1        0.0940
     21 C          63.0298   85.0201   15.6580 C.3     1  UNL1        0.1141
     22 N          63.5368   86.1006   14.7496 N.am    1  UNL1       -0.2432
     23 C          63.7257   87.4934   15.2735 C.2     1  UNL1        0.4048
     24 O          63.4076   87.8057   16.7058 O.2     1  UNL1       -0.2262
     25 C          63.8550   85.7885   13.3174 C.3     1  UNL1        0.1141
     26 C          63.6660   84.3956   12.7936 C.3     1  UNL1        0.0940
     27 C          64.0642   82.1503   12.1776 C.3     1  UNL1        0.0186
     28 C          62.9701   81.9222   13.1781 C.3     1  UNL1        0.0726
     29 C          61.8762   81.6942   14.1787 C.3     1  UNL1        0.0186
     30 C          62.7813   80.5294   12.6542 C.3     1  UNL1        0.1516
     31 O          62.0277   79.5183   13.4665 O.3     1  UNL1       -0.3806
     32 H          62.5225   79.3211   14.2772 H       1  UNL1        0.2105
     33 S          65.8748   91.8348   13.4181 S.O2    1  UNL1        0.0636
     34 O          66.6360   90.7297   13.5652 O.2     1  UNL1       -0.1528
     35 O          65.2905   93.2158   13.4596 O.2     1  UNL1       -0.1528
     36 C          67.0273   92.2973   14.2596 C.ar    1  UNL1        0.1223
     37 C          66.7726   92.9603   15.5808 C.ar    1  UNL1        0.0208
     38 C          67.9251   93.4227   16.4223 C.ar    1  UNL1        0.0128
     39 C          69.3321   93.2221   15.9426 C.ar    1  UNL1        0.0578
     40 CL         70.4845   93.6845   16.7841 Cl      1  UNL1       -0.0822
     41 C          69.5866   92.5591   14.6214 C.ar    1  UNL1        0.0128
     42 C          68.4342   92.0967   13.7798 C.ar    1  UNL1        0.0208
@<TRIPOS>BOND
     1    27    28    1
     2    28    29    1
     3    28    30    1
     4    30    31    1
     5    28    19    1
     6    19    20    1
     7    20    21    1
     8    21    22    1
     9    22    23   am
    10    23    24    2
    11    23    18    1
    12    18    15    1
    13     1    15    1
    14     1     2    1
    15     2     3    1
    16     3     4    1
    17     4     5    1
    18     5     7    1
    19     7     8   ar
    20     8     9   ar
    21     9    10    1
    22     9    11   ar
    23    11    12   ar
    24    12    13    1
    25    12    14   ar
    26     5     6    1
    27     6    33    1
    28    33    34    2
    29    33    35    2
    30    33    36    1
    31    36    37   ar
    32    37    38   ar
    33    38    39   ar
    34    39    40    1
    35    39    41   ar
    36    41    42   ar
    37    15    16    1
    38    16    17    1
    39    22    25    1
    40    25    26    1
    41    26    19    1
    42    17    15    1
    43     6     1    1
    44    42    36   ar
    45    14     7   ar
    46    31    32    1
@<TRIPOS>MOLECULE
*****
 42 46 0 0 0
SMALL
GASTEIGER

@<TRIPOS>ATOM
      1 C          62.9296   89.7951   12.6430 C.3     1  UNL1        0.1164
      2 C          62.7137   91.1992   12.1617 C.3     1  UNL1        0.0213
      3 C          62.1377   91.4445   10.7985 C.3     1  UNL1        0.0033
      4 C          61.7776   90.2856    9.9168 C.3     1  UNL1        0.0223
      5 C          61.9935   88.8815   10.3982 C.3     1  UNL1        0.1019
      6 N          62.5695   88.6362   11.7613 N.3     1  UNL1       -0.1508
      7 C          61.6335   87.7226    9.5166 C.ar    1  UNL1       -0.0017
      8 C          60.2342   87.5841    8.9940 C.ar    1  UNL1        0.0269
      9 C          59.8742   86.4253    8.1124 C.ar    1  UNL1        0.1421
     10 F          58.4749   86.2868    7.5898 F       1  UNL1       -0.2041
     11 C          60.9132   85.4048    7.7533 C.ar    1  UNL1        0.0592
     12 C          62.3124   85.5432    8.2759 C.ar    1  UNL1        0.1421
     13 F          63.3515   84.5228    7.9168 F       1  UNL1       -0.2041
     14 C          62.6726   86.7021    9.1575 C.ar    1  UNL1        0.0269
     15 C          63.5056   89.5498   14.0062 C.3     1  UNL1        0.1525
     16 C          62.2815   89.0607   14.7220 C.3     1  UNL1        0.0452
     17 C          63.5870   89.1642   15.4535 C.3     1  UNL1        0.0452
     18 O          64.9297   89.9535   13.7637 O.3     1  UNL1       -0.4404
     19 N          66.4749   94.5414   11.3525 N.3     1  UNL1       -0.2699
     20 C          66.6277   94.7742   12.8264 C.3     1  UNL1        0.0940
     21 C          66.2796   93.6853   13.7977 C.3     1  UNL1        0.1141
     22 N          65.7787   92.3639   13.2950 N.am    1  UNL1       -0.2432
     23 C          65.4306   91.2751   14.2664 C.2     1  UNL1        0.4048
     24 O          65.5834   91.5078   15.7403 O.2     1  UNL1       -0.2262
     25 C          65.6259   92.1310   11.8211 C.3     1  UNL1        0.1141
     26 C          65.9741   93.2199   10.8498 C.3     1  UNL1        0.0940
     27 C          66.1638   96.6383   11.2751 C.3     1  UNL1        0.0186
     28 C          66.8231   95.6302   10.3812 C.3     1  UNL1        0.0726
     29 C          67.4823   94.6220    9.4874 C.3     1  UNL1        0.0186
     30 C          67.1711   96.7189    9.4099 C.3     1  UNL1        0.1516
     31 O          68.0350   96.4159    8.2216 O.3     1  UNL1       -0.3806
     32 H          68.9255   96.1757    8.5220 H       1  UNL1        0.2105
     33 S          62.7854   87.2321   12.2428 S.O2    1  UNL1        0.0636
     34 O          64.0777   87.2155   12.6329 O.2     1  UNL1       -0.1528
     35 O          61.3593   86.9008   11.9162 O.2     1  UNL1       -0.1528
     36 C          63.0013   85.8279   12.7243 C.ar    1  UNL1        0.1223
     37 C          62.4139   84.6759   11.9641 C.ar    1  UNL1        0.0208
     38 C          62.6297   83.2717   12.4456 C.ar    1  UNL1        0.0128
     39 C          63.4328   83.0195   13.6871 C.ar    1  UNL1        0.0578
     40 CL         63.6486   81.6154   14.1686 Cl      1  UNL1       -0.0822
     41 C          64.0202   84.1716   14.4472 C.ar    1  UNL1        0.0128
     42 C          63.8044   85.5758   13.9658 C.ar    1  UNL1        0.0208
@<TRIPOS>BOND
     1    27    28    1
     2    28    29    1
     3    28    30    1
     4    30    31    1
     5    28    19    1
     6    19    20    1
     7    20    21    1
     8    21    22    1
     9    22    23   am
    10    23    24    2
    11    23    18    1
    12    18    15    1
    13     1    15    1
    14     1     2    1
    15     2     3    1
    16     3     4    1
    17     4     5    1
    18     5     7    1
    19     7     8   ar
    20     8     9   ar
    21     9    10    1
    22     9    11   ar
    23    11    12   ar
    24    12    13    1
    25    12    14   ar
    26     5     6    1
    27     6    33    1
    28    33    34    2
    29    33    35    2
    30    33    36    1
    31    36    37   ar
    32    37    38   ar
    33    38    39   ar
    34    39    40    1
    35    39    41   ar
    36    41    42   ar
    37    15    16    1
    38    16    17    1
    39    22    25    1
    40    25    26    1
    41    26    19    1
    42    17    15    1
    43     6     1    1
    44    42    36   ar
    45    14     7   ar
    46    31    32    1
@<TRIPOS>MOLECULE
*****
 42 46 0 0 0
SMALL
GASTEIGER

@<TRIPOS>ATOM
      1 C          64.9634   91.4057   15.5514 C.3     1  UNL1        0.1164
      2 C          65.9015   91.9225   16.6015 C.3     1  UNL1        0.0213
      3 C          67.0783   92.7648   16.2069 C.3     1  UNL1        0.0033
      4 C          67.3169   93.0902   14.7621 C.3     1  UNL1        0.0223
      5 C          66.3788   92.5733   13.7121 C.3     1  UNL1        0.1019
      6 N          65.2021   91.7310   14.1067 N.3     1  UNL1       -0.1508
      7 C          66.6174   92.8986   12.2674 C.ar    1  UNL1       -0.0017
      8 C          66.0489   94.1555   11.6779 C.ar    1  UNL1        0.0269
      9 C          66.2875   94.4808   10.2332 C.ar    1  UNL1        0.1421
     10 F          65.7190   95.7376    9.6437 F       1  UNL1       -0.2041
     11 C          67.0944   93.5495    9.3779 C.ar    1  UNL1        0.0592
     12 C          67.6629   92.2928    9.9674 C.ar    1  UNL1        0.1421
     13 F          68.4698   91.3615    9.1122 F       1  UNL1       -0.2041
     14 C          67.4243   91.9674   11.4122 C.ar    1  UNL1        0.0269
     15 C          63.7866   90.5634   15.9460 C.3     1  UNL1        0.1525
     16 C          62.8526   91.6319   16.4317 C.3     1  UNL1        0.0452
     17 C          62.4274   90.1937   16.4617 C.3     1  UNL1        0.0452
     18 O          64.3119   89.2023   15.5974 O.3     1  UNL1       -0.4404
     19 N          63.3972   84.1159   14.0031 N.3     1  UNL1       -0.2699
     20 C          62.9528   84.1896   15.4338 C.3     1  UNL1        0.0940
     21 C          63.0704   85.4798   16.1901 C.3     1  UNL1        0.1141
     22 N          63.6323   86.6960   15.5156 N.am    1  UNL1       -0.2432
     23 C          63.7499   87.9860   16.2719 C.2     1  UNL1        0.4048
     24 O          63.3055   88.0598   17.7027 O.2     1  UNL1       -0.2262
     25 C          64.0768   86.6222   14.0848 C.3     1  UNL1        0.1141
     26 C          63.9591   85.3320   13.3286 C.3     1  UNL1        0.0940
     27 C          62.3123   82.3130   14.2721 C.3     1  UNL1        0.0186
     28 C          63.2796   82.8258   13.2468 C.3     1  UNL1        0.0726
     29 C          64.2469   83.3387   12.2215 C.3     1  UNL1        0.0186
     30 C          63.1620   81.5358   12.4905 C.3     1  UNL1        0.1516
     31 O          62.5864   80.3234   13.1605 O.3     1  UNL1       -0.3806
     32 H          63.1762   80.0388   13.8761 H       1  UNL1        0.2105
     33 S          64.2639   91.2141   13.0567 S.O2    1  UNL1        0.0636
     34 O          63.4819   92.2754   12.7660 O.2     1  UNL1       -0.1528
     35 O          64.9254   89.8696   13.1276 O.2     1  UNL1       -0.1528
     36 C          63.3257   90.6970   12.0066 C.ar    1  UNL1        0.1223
     37 C          63.3969   91.2334   10.6076 C.ar    1  UNL1        0.0208
     38 C          62.4587   90.7163    9.5576 C.ar    1  UNL1        0.0128
     39 C          61.4495   89.6629    9.9065 C.ar    1  UNL1        0.0578
     40 CL         60.5114   89.1459    8.8564 Cl      1  UNL1       -0.0822
     41 C          61.3784   89.1265   11.3055 C.ar    1  UNL1        0.0128
     42 C          62.3165   89.6436   12.3556 C.ar    1  UNL1        0.0208
@<TRIPOS>BOND
     1    27    28    1
     2    28    29    1
     3    28    30    1
     4    30    31    1
     5    28    19    1
     6    19    20    1
     7    20    21    1
     8    21    22    1
     9    22    23   am
    10    23    24    2
    11    23    18    1
    12    18    15    1
    13     1    15    1
    14     1     2    1
    15     2     3    1
    16     3     4    1
    17     4     5    1
    18     5     7    1
    19     7     8   ar
    20     8     9   ar
    21     9    10    1
    22     9    11   ar
    23    11    12   ar
    24    12    13    1
    25    12    14   ar
    26     5     6    1
    27     6    33    1
    28    33    34    2
    29    33    35    2
    30    33    36    1
    31    36    37   ar
    32    37    38   ar
    33    38    39   ar
    34    39    40    1
    35    39    41   ar
    36    41    42   ar
    37    15    16    1
    38    16    17    1
    39    22    25    1
    40    25    26    1
    41    26    19    1
    42    17    15    1
    43     6     1    1
    44    42    36   ar
    45    14     7   ar
    46    31    32    1
@<TRIPOS>MOLECULE
*****
 42 46 0 0 0
SMALL
GASTEIGER

@<TRIPOS>ATOM
      1 C          62.7442   88.7341   12.5803 C.3     1  UNL1        0.1164
      2 C          63.1940   89.2634   13.9097 C.3     1  UNL1        0.0213
      3 C          63.7167   88.3220   14.9540 C.3     1  UNL1        0.0033
      4 C          63.7897   86.8511   14.6687 C.3     1  UNL1        0.0223
      5 C          63.3399   86.3218   13.3393 C.3     1  UNL1        0.1019
      6 N          62.8172   87.2632   12.2950 N.3     1  UNL1       -0.1508
      7 C          63.4128   84.8510   13.0539 C.ar    1  UNL1       -0.0017
      8 C          64.1801   84.3550   11.8642 C.ar    1  UNL1        0.0269
      9 C          64.2530   82.8842   11.5788 C.ar    1  UNL1        0.1421
     10 F          65.0203   82.3882   10.3891 F       1  UNL1       -0.2041
     11 C          63.5588   81.9094   12.4831 C.ar    1  UNL1        0.0592
     12 C          62.7916   82.4054   13.6728 C.ar    1  UNL1        0.1421
     13 F          62.0973   81.4306   14.5770 F       1  UNL1       -0.2041
     14 C          62.7186   83.8762   13.9582 C.ar    1  UNL1        0.0269
     15 C          62.2215   89.6755   11.5361 C.3     1  UNL1        0.1525
     16 C          60.7631   89.6695   11.8865 C.3     1  UNL1        0.0452
     17 C          61.2553   90.5014   10.7394 C.3     1  UNL1        0.0452
     18 O          63.4984   90.0086   10.8229 O.3     1  UNL1       -0.4404
     19 N          66.9533   92.5315   14.1318 N.3     1  UNL1       -0.2699
     20 C          66.5376   93.5485   13.1106 C.3     1  UNL1        0.0940
     21 C          65.5699   93.1719   12.0280 C.3     1  UNL1        0.1141
     22 N          65.0180   91.7785   11.9668 N.am    1  UNL1       -0.2432
     23 C          64.0503   91.4020   10.8842 C.2     1  UNL1        0.4048
     24 O          63.6346   92.4189    9.8629 O.2     1  UNL1       -0.2262
     25 C          65.4337   90.7615   12.9880 C.3     1  UNL1        0.1141
     26 C          66.4014   91.1381   14.0706 C.3     1  UNL1        0.0940
     27 C          66.7775   93.1259   16.1605 C.3     1  UNL1        0.0186
     28 C          67.9209   92.9080   15.2144 C.3     1  UNL1        0.0726
     29 C          69.0643   92.6901   14.2683 C.3     1  UNL1        0.0186
     30 C          68.8885   93.2845   16.2970 C.3     1  UNL1        0.1516
     31 O          69.4360   94.6795   16.3618 O.3     1  UNL1       -0.3806
     32 H          69.9905   94.8457   15.5835 H       1  UNL1        0.2105
     33 S          62.3674   86.7340   10.9655 S.O2    1  UNL1        0.0636
     34 O          63.3864   87.0344   10.1325 O.2     1  UNL1       -0.1528
     35 O          61.0883   86.2578   11.5879 O.2     1  UNL1       -0.1528
     36 C          61.9175   86.2046    9.6360 C.ar    1  UNL1        0.1223
     37 C          60.5094   86.4365    9.1741 C.ar    1  UNL1        0.0208
     38 C          60.0595   85.9072    7.8446 C.ar    1  UNL1        0.0128
     39 C          61.0176   85.1460    6.9771 C.ar    1  UNL1        0.0578
     40 CL         60.5677   84.6168    5.6477 Cl      1  UNL1       -0.0822
     41 C          62.4257   84.9142    7.4391 C.ar    1  UNL1        0.0128
     42 C          62.8757   85.4435    8.7686 C.ar    1  UNL1        0.0208
@<TRIPOS>BOND
     1    27    28    1
     2    28    29    1
     3    28    30    1
     4    30    31    1
     5    28    19    1
     6    19    20    1
     7    20    21    1
     8    21    22    1
     9    22    23   am
    10    23    24    2
    11    23    18    1
    12    18    15    1
    13     1    15    1
    14     1     2    1
    15     2     3    1
    16     3     4    1
    17     4     5    1
    18     5     7    1
    19     7     8   ar
    20     8     9   ar
    21     9    10    1
    22     9    11   ar
    23    11    12   ar
    24    12    13    1
    25    12    14   ar
    26     5     6    1
    27     6    33    1
    28    33    34    2
    29    33    35    2
    30    33    36    1
    31    36    37   ar
    32    37    38   ar
    33    38    39   ar
    34    39    40    1
    35    39    41   ar
    36    41    42   ar
    37    15    16    1
    38    16    17    1
    39    22    25    1
    40    25    26    1
    41    26    19    1
    42    17    15    1
    43     6     1    1
    44    42    36   ar
    45    14     7   ar
    46    31    32    1
