@<TRIPOS>MOLECULE
*****
 38 41 0 0 0
SMALL
GASTEIGER

@<TRIPOS>ATOM
      1 C          64.3335   89.9605   13.8610 C.2     1  UNL1        0.2522
      2 O          64.3648   90.4008   15.2946 O.2     1  UNL1       -0.2699
      3 N          64.7101   90.9217   12.7728 N.am    1  UNL1       -0.2981
      4 H          64.6896   90.6327   11.8319 H       1  UNL1        0.1498
      5 C          63.1195   83.2133   13.3590 C.ar    1  UNL1        0.0509
      6 C          63.9452   83.4739   14.5838 C.ar    1  UNL1        0.0147
      7 C          64.3531   84.8754   14.9292 C.ar    1  UNL1        0.0043
      8 C          63.9354   86.0164   14.0497 C.ar    1  UNL1        0.0351
      9 C          64.3433   87.4179   14.3951 C.ar    1  UNL1        0.0141
     10 C          63.9255   88.5590   13.5156 C.ar    1  UNL1        0.1293
     11 C          63.0998   88.2985   12.2907 C.ar    1  UNL1        0.3502
     12 O          62.6820   89.4395   11.4112 O.2     1  UNL1       -0.2443
     13 O          62.6919   86.8969   11.9453 O.2     1  UNL1       -0.4209
     14 C          63.1097   85.7559   12.8249 C.ar    1  UNL1        0.1499
     15 C          62.7017   84.3543   12.4795 C.ar    1  UNL1        0.0521
     16 N          62.7116   81.8118   13.0136 N.pl3   1  UNL1       -0.3074
     17 C          63.8377   82.0005   10.6799 C.3     1  UNL1        0.0232
     18 C          62.9000   81.2985   11.6168 C.3     1  UNL1        0.0908
     19 C          62.1152   80.9236   14.0649 C.3     1  UNL1        0.0908
     20 C          60.6306   80.7155   14.1171 C.3     1  UNL1        0.0232
     21 C          65.1181   92.3233   13.1181 C.3     1  UNL1        0.1229
     22 C          65.6773   93.2246   12.0576 C.3     1  UNL1        0.1495
     23 O          64.9711   92.4233   11.0043 O.3     1  UNL1       -0.3789
     24 H          64.4779   91.7011   11.4240 H       1  UNL1        0.2108
     25 C          66.2365   94.1259   10.9969 C.ar    1  UNL1        0.0328
     26 C          65.7798   95.5519   10.9072 C.ar    1  UNL1        0.0026
     27 C          66.3390   96.4531    9.8466 C.ar    1  UNL1        0.0295
     28 C          67.3550   95.9285    8.8758 C.ar    1  UNL1        0.1424
     29 F          67.9142   96.8299    7.8151 F       1  UNL1       -0.2041
     30 C          67.8117   94.5026    8.9655 C.ar    1  UNL1        0.0590
     31 C          67.2525   93.6013   10.0261 C.ar    1  UNL1        0.1406
     32 F          67.7092   92.1753   10.1158 F       1  UNL1       -0.2043
     33 C          66.3834   94.0258   13.1108 C.3     1  UNL1        0.1619
     34 N          67.1250   93.3283   14.2123 N.ar    1  UNL1       -0.2273
     35 C          66.6162   93.0867   15.6025 C.ar    1  UNL1        0.1973
     36 N          67.6824   92.3590   16.3665 N.ar    1  UNL1       -0.2007
     37 C          68.8502   92.1508   15.4484 C.ar    1  UNL1        0.2210
     38 N          68.5058   92.7498   14.1170 N.ar    1  UNL1       -0.1451
@<TRIPOS>BOND
     1    17    18    1
     2    18    16    1
     3    16    19    1
     4    19    20    1
     5    16     5    1
     6     5     6   ar
     7     6     7   ar
     8     7     8   ar
     9     8     9   ar
    10     9    10   ar
    11    10     1    1
    12     1     2    2
    13     1     3   am
    14     3    21    1
    15    21    22    1
    16    22    23    1
    17    22    33    1
    18    33    34    1
    19    34    35   ar
    20    35    36   ar
    21    36    37   ar
    22    37    38   ar
    23    22    25    1
    24    25    26   ar
    25    26    27   ar
    26    27    28   ar
    27    28    29    1
    28    28    30   ar
    29    30    31   ar
    30    31    32    1
    31    10    11   ar
    32    11    12    2
    33    11    13   ar
    34    13    14   ar
    35    14    15   ar
    36    15     5   ar
    37    14     8   ar
    38    38    34   ar
    39    31    25   ar
    40     3     4    1
    41    23    24    1
@<TRIPOS>MOLECULE
*****
 38 41 0 0 0
SMALL
GASTEIGER

@<TRIPOS>ATOM
      1 C          64.2962   89.9170   13.8193 C.2     1  UNL1        0.2522
      2 O          64.3420   90.3519   15.2541 O.2     1  UNL1       -0.2699
      3 N          64.6493   90.8861   12.7301 N.am    1  UNL1       -0.2981
      4 H          64.6193   90.6006   11.7884 H       1  UNL1        0.1498
      5 C          63.1432   83.1601   13.3040 C.ar    1  UNL1        0.0509
      6 C          63.9848   83.4235   14.5174 C.ar    1  UNL1        0.0147
      7 C          64.3837   84.8276   14.8631 C.ar    1  UNL1        0.0043
      8 C          63.9410   85.9682   13.9955 C.ar    1  UNL1        0.0351
      9 C          64.3399   87.3723   14.3412 C.ar    1  UNL1        0.0141
     10 C          63.8973   88.5129   13.4736 C.ar    1  UNL1        0.1293
     11 C          63.0556   88.2496   12.2601 C.ar    1  UNL1        0.3502
     12 O          62.6130   89.3903   11.3925 O.2     1  UNL1       -0.2443
     13 O          62.6567   86.8456   11.9144 O.2     1  UNL1       -0.4209
     14 C          63.0994   85.7049   12.7821 C.ar    1  UNL1        0.1499
     15 C          62.7005   84.3008   12.4364 C.ar    1  UNL1        0.0521
     16 N          62.7443   81.7561   12.9583 N.pl3   1  UNL1       -0.3074
     17 C          60.6288   80.7546   14.0861 C.3     1  UNL1        0.0232
     18 C          62.1215   80.8752   14.0005 C.3     1  UNL1        0.0908
     19 C          62.9681   81.2330   11.5705 C.3     1  UNL1        0.0908
     20 C          63.7934   82.0202   10.5963 C.3     1  UNL1        0.0232
     21 C          65.0482   92.2901   13.0759 C.3     1  UNL1        0.1229
     22 C          65.6288   93.1859   12.0221 C.3     1  UNL1        0.1495
     23 O          64.9393   92.3827   10.9594 O.3     1  UNL1       -0.3789
     24 H          64.4367   91.6634   11.3728 H       1  UNL1        0.2108
     25 C          66.2095   94.0818   10.9683 C.ar    1  UNL1        0.0328
     26 C          65.7468   95.5041   10.8549 C.ar    1  UNL1        0.0026
     27 C          66.3275   96.3998    9.8012 C.ar    1  UNL1        0.0295
     28 C          67.3708   95.8733    8.8609 C.ar    1  UNL1        0.1424
     29 F          67.9515   96.7691    7.8071 F       1  UNL1       -0.2041
     30 C          67.8335   94.4509    8.9742 C.ar    1  UNL1        0.0590
     31 C          67.2528   93.5552   10.0280 C.ar    1  UNL1        0.1406
     32 F          67.7154   92.1328   10.1414 F       1  UNL1       -0.2043
     33 C          66.3183   93.9891   13.0848 C.3     1  UNL1        0.1619
     34 N          67.1125   93.2960   14.1520 N.ar    1  UNL1       -0.2273
     35 C          66.7138   93.1456   15.5902 C.ar    1  UNL1        0.1973
     36 N          67.7996   92.3882   16.2955 N.ar    1  UNL1       -0.2007
     37 C          68.8694   92.0706   15.2932 C.ar    1  UNL1        0.2210
     38 N          68.4448   92.6316   13.9684 N.ar    1  UNL1       -0.1451
@<TRIPOS>BOND
     1    17    18    1
     2    18    16    1
     3    16    19    1
     4    19    20    1
     5    16     5    1
     6     5     6   ar
     7     6     7   ar
     8     7     8   ar
     9     8     9   ar
    10     9    10   ar
    11    10     1    1
    12     1     2    2
    13     1     3   am
    14     3    21    1
    15    21    22    1
    16    22    23    1
    17    22    33    1
    18    33    34    1
    19    34    35   ar
    20    35    36   ar
    21    36    37   ar
    22    37    38   ar
    23    22    25    1
    24    25    26   ar
    25    26    27   ar
    26    27    28   ar
    27    28    29    1
    28    28    30   ar
    29    30    31   ar
    30    31    32    1
    31    10    11   ar
    32    11    12    2
    33    11    13   ar
    34    13    14   ar
    35    14    15   ar
    36    15     5   ar
    37    14     8   ar
    38    38    34   ar
    39    31    25   ar
    40     3     4    1
    41    23    24    1
@<TRIPOS>MOLECULE
*****
 38 41 0 0 0
SMALL
GASTEIGER

@<TRIPOS>ATOM
      1 C          63.6913   88.6297   15.0048 C.2     1  UNL1        0.2522
      2 O          63.0941   88.9769   16.3362 O.2     1  UNL1       -0.2699
      3 N          63.9202   87.1936   14.6369 N.am    1  UNL1       -0.2981
      4 H          64.3122   86.9657   13.7631 H       1  UNL1        0.1498
      5 C          66.1506   94.0414   11.5529 C.ar    1  UNL1        0.0509
      6 C          66.7682   94.0088   12.9194 C.ar    1  UNL1        0.0147
      7 C          66.3998   92.9199   13.8831 C.ar    1  UNL1        0.0043
      8 C          65.4139   91.8637   13.4802 C.ar    1  UNL1        0.0351
      9 C          65.0456   90.7748   14.4439 C.ar    1  UNL1        0.0141
     10 C          64.0596   89.7186   14.0411 C.ar    1  UNL1        0.1293
     11 C          63.4420   89.7513   12.6745 C.ar    1  UNL1        0.3502
     12 O          62.4561   88.6951   12.2716 O.2     1  UNL1       -0.2443
     13 O          63.8103   90.8401   11.7108 O.2     1  UNL1       -0.4209
     14 C          64.7963   91.8964   12.1137 C.ar    1  UNL1        0.1499
     15 C          65.1646   92.9852   11.1500 C.ar    1  UNL1        0.0521
     16 N          66.5189   95.1303   10.5892 N.pl3   1  UNL1       -0.3074
     17 C          68.0505   93.4787    9.2944 C.3     1  UNL1        0.0232
     18 C          67.5293   94.8683    9.5119 C.3     1  UNL1        0.0908
     19 C          65.8769   96.4812   10.7027 C.3     1  UNL1        0.0908
     20 C          64.6577   96.8028    9.8902 C.3     1  UNL1        0.0232
     21 C          63.5519   86.1047   15.6006 C.3     1  UNL1        0.1229
     22 C          63.2836   84.7173   15.0978 C.3     1  UNL1        0.1495
     23 O          62.5699   84.3919   16.3763 O.3     1  UNL1       -0.3789
     24 H          62.5797   85.1677   16.9585 H       1  UNL1        0.2108
     25 C          63.0152   83.3298   14.5948 C.ar    1  UNL1        0.0328
     26 C          61.6158   82.7898   14.5940 C.ar    1  UNL1        0.0026
     27 C          61.3476   81.4024   14.0911 C.ar    1  UNL1        0.0295
     28 C          62.4788   80.5548   13.5890 C.ar    1  UNL1        0.1424
     29 F          62.2104   79.1673   13.0861 F       1  UNL1       -0.2041
     30 C          63.8782   81.0948   13.5898 C.ar    1  UNL1        0.0590
     31 C          64.1464   82.4822   14.0927 C.ar    1  UNL1        0.1406
     32 F          65.5459   83.0222   14.0936 F       1  UNL1       -0.2043
     33 C          63.9972   85.0427   13.8192 C.3     1  UNL1        0.1619
     34 N          63.2362   85.0936   12.5275 N.ar    1  UNL1       -0.2273
     35 C          63.6037   84.3822   11.2591 C.ar    1  UNL1        0.1973
     36 N          62.5688   84.7137   10.2252 N.ar    1  UNL1       -0.2007
     37 C          61.5617   85.6300   10.8546 C.ar    1  UNL1        0.2210
     38 N          61.9742   85.8648   12.2775 N.ar    1  UNL1       -0.1451
@<TRIPOS>BOND
     1    17    18    1
     2    18    16    1
     3    16    19    1
     4    19    20    1
     5    16     5    1
     6     5     6   ar
     7     6     7   ar
     8     7     8   ar
     9     8     9   ar
    10     9    10   ar
    11    10     1    1
    12     1     2    2
    13     1     3   am
    14     3    21    1
    15    21    22    1
    16    22    23    1
    17    22    33    1
    18    33    34    1
    19    34    35   ar
    20    35    36   ar
    21    36    37   ar
    22    37    38   ar
    23    22    25    1
    24    25    26   ar
    25    26    27   ar
    26    27    28   ar
    27    28    29    1
    28    28    30   ar
    29    30    31   ar
    30    31    32    1
    31    10    11   ar
    32    11    12    2
    33    11    13   ar
    34    13    14   ar
    35    14    15   ar
    36    15     5   ar
    37    14     8   ar
    38    38    34   ar
    39    31    25   ar
    40     3     4    1
    41    23    24    1
@<TRIPOS>MOLECULE
*****
 38 41 0 0 0
SMALL
GASTEIGER

@<TRIPOS>ATOM
      1 C          59.4258   89.5350    7.0160 C.2     1  UNL1        0.2522
      2 O          58.4865   88.3660    6.9845 O.2     1  UNL1       -0.2699
      3 N          60.2498   89.8022    8.2406 N.am    1  UNL1       -0.2981
      4 H          60.8664   90.5695    8.2613 H       1  UNL1        0.1498
      5 C          61.2280   93.3946    1.6211 C.ar    1  UNL1        0.0509
      6 C          62.4538   92.7448    2.1913 C.ar    1  UNL1        0.0147
      7 C          62.3385   91.8429    3.3844 C.ar    1  UNL1        0.0043
      8 C          60.9974   91.5908    4.0072 C.ar    1  UNL1        0.0351
      9 C          60.8821   90.6890    5.2002 C.ar    1  UNL1        0.0141
     10 C          59.5411   90.4369    5.8230 C.ar    1  UNL1        0.1293
     11 C          58.3152   91.0866    5.2527 C.ar    1  UNL1        0.3502
     12 O          56.9741   90.8345    5.8755 O.2     1  UNL1       -0.2443
     13 O          58.4305   91.9885    4.0597 O.2     1  UNL1       -0.4209
     14 C          59.7717   92.2406    3.4369 C.ar    1  UNL1        0.1499
     15 C          59.8870   93.1425    2.2439 C.ar    1  UNL1        0.0521
     16 N          61.3433   94.2964    0.4280 N.pl3   1  UNL1       -0.3074
     17 C          62.7346   96.3009    1.3204 C.3     1  UNL1        0.0232
     18 C          61.5180   95.7739    0.6189 C.3     1  UNL1        0.0908
     19 C          61.2839   93.7208   -0.9558 C.3     1  UNL1        0.0908
     20 C          62.5324   93.6223   -1.7814 C.3     1  UNL1        0.0232
     21 C          60.1345   88.9003    9.4337 C.3     1  UNL1        0.1229
     22 C          60.9764   87.6620    9.5219 C.3     1  UNL1        0.1495
     23 O          59.7368   86.8178    9.5007 O.3     1  UNL1       -0.3789
     24 H          58.9563   87.3908    9.4423 H       1  UNL1        0.2108
     25 C          61.8183   86.4237    9.6101 C.ar    1  UNL1        0.0328
     26 C          62.5732   85.9427    8.4065 C.ar    1  UNL1        0.0026
     27 C          63.4151   84.7044    8.4948 C.ar    1  UNL1        0.0295
     28 C          63.5021   83.9471    9.7867 C.ar    1  UNL1        0.1424
     29 F          64.3440   82.7087    9.8750 F       1  UNL1       -0.2041
     30 C          62.7472   84.4281   10.9903 C.ar    1  UNL1        0.0590
     31 C          61.9053   85.6664   10.9020 C.ar    1  UNL1        0.1406
     32 F          61.1503   86.1474   12.1057 F       1  UNL1       -0.2043
     33 C          62.2160   88.5063    9.5431 C.3     1  UNL1        0.1619
     34 N          62.5510   89.3164   10.7603 N.ar    1  UNL1       -0.2273
     35 C          63.1437   90.6943   10.7667 C.ar    1  UNL1        0.1973
     36 N          63.3111   91.1203   12.1952 N.ar    1  UNL1       -0.2007
     37 C          62.8219   90.0056   13.0716 C.ar    1  UNL1        0.2210
     38 N          62.3521   88.8907   12.1849 N.ar    1  UNL1       -0.1451
@<TRIPOS>BOND
     1    17    18    1
     2    18    16    1
     3    16    19    1
     4    19    20    1
     5    16     5    1
     6     5     6   ar
     7     6     7   ar
     8     7     8   ar
     9     8     9   ar
    10     9    10   ar
    11    10     1    1
    12     1     2    2
    13     1     3   am
    14     3    21    1
    15    21    22    1
    16    22    23    1
    17    22    33    1
    18    33    34    1
    19    34    35   ar
    20    35    36   ar
    21    36    37   ar
    22    37    38   ar
    23    22    25    1
    24    25    26   ar
    25    26    27   ar
    26    27    28   ar
    27    28    29    1
    28    28    30   ar
    29    30    31   ar
    30    31    32    1
    31    10    11   ar
    32    11    12    2
    33    11    13   ar
    34    13    14   ar
    35    14    15   ar
    36    15     5   ar
    37    14     8   ar
    38    38    34   ar
    39    31    25   ar
    40     3     4    1
    41    23    24    1
@<TRIPOS>MOLECULE
*****
 38 41 0 0 0
SMALL
GASTEIGER

@<TRIPOS>ATOM
      1 C          63.3794   89.4037   12.8679 C.2     1  UNL1        0.2522
      2 O          62.8417   89.9224   14.1686 O.2     1  UNL1       -0.2699
      3 N          64.1251   90.3216   11.9452 N.am    1  UNL1       -0.2981
      4 H          64.4780   89.9811   11.0915 H       1  UNL1        0.1498
      5 C          63.1260   82.5664   12.2073 C.ar    1  UNL1        0.0509
      6 C          63.9129   82.9121   13.4367 C.ar    1  UNL1        0.0147
      7 C          64.1209   84.3487   13.8147 C.ar    1  UNL1        0.0043
      8 C          63.5421   85.4396   12.9633 C.ar    1  UNL1        0.0351
      9 C          63.7501   86.8762   13.3413 C.ar    1  UNL1        0.0141
     10 C          63.1713   87.9671   12.4899 C.ar    1  UNL1        0.1293
     11 C          62.3844   87.6214   11.2605 C.ar    1  UNL1        0.3502
     12 O          61.8056   88.7123   10.4092 O.2     1  UNL1       -0.2443
     13 O          62.1764   86.1848   10.8826 O.2     1  UNL1       -0.4209
     14 C          62.7552   85.0939   11.7340 C.ar    1  UNL1        0.1499
     15 C          62.5472   83.6573   11.3560 C.ar    1  UNL1        0.0521
     16 N          62.9180   81.1297   11.8294 N.pl3   1  UNL1       -0.3074
     17 C          61.3695   80.4912   13.8154 C.3     1  UNL1        0.0232
     18 C          62.4744   80.1386   12.8642 C.3     1  UNL1        0.0908
     19 C          63.1535   80.6843   10.4166 C.3     1  UNL1        0.0908
     20 C          62.7948   79.2885   10.0006 C.3     1  UNL1        0.0232
     21 C          64.3331   91.7582   12.3231 C.3     1  UNL1        0.1229
     22 C          65.5057   92.1478   13.1735 C.3     1  UNL1        0.1495
     23 O          64.6987   91.8797   14.4091 O.3     1  UNL1       -0.3789
     24 H          63.8098   91.5844   14.1570 H       1  UNL1        0.2108
     25 C          66.6784   92.5373   14.0239 C.ar    1  UNL1        0.0328
     26 C          66.4711   93.3824   15.2457 C.ar    1  UNL1        0.0026
     27 C          67.6437   93.7720   16.0960 C.ar    1  UNL1        0.0295
     28 C          69.0238   93.3164   15.7245 C.ar    1  UNL1        0.1424
     29 F          70.1965   93.7060   16.5749 F       1  UNL1       -0.2041
     30 C          69.2311   92.4713   14.5028 C.ar    1  UNL1        0.0590
     31 C          68.0585   92.0817   13.6525 C.ar    1  UNL1        0.1406
     32 F          68.2658   91.2366   12.4306 F       1  UNL1       -0.2043
     33 C          66.3128   92.4158   11.9379 C.3     1  UNL1        0.1619
     34 N          66.3466   93.7948   11.3487 N.ar    1  UNL1       -0.2273
     35 C          66.7565   94.1458    9.9491 C.ar    1  UNL1        0.1973
     36 N          66.6397   95.6329    9.7910 N.ar    1  UNL1       -0.2007
     37 C          66.1574   96.2010   11.0928 C.ar    1  UNL1        0.2210
     38 N          65.9763   95.0650   12.0556 N.ar    1  UNL1       -0.1451
@<TRIPOS>BOND
     1    17    18    1
     2    18    16    1
     3    16    19    1
     4    19    20    1
     5    16     5    1
     6     5     6   ar
     7     6     7   ar
     8     7     8   ar
     9     8     9   ar
    10     9    10   ar
    11    10     1    1
    12     1     2    2
    13     1     3   am
    14     3    21    1
    15    21    22    1
    16    22    23    1
    17    22    33    1
    18    33    34    1
    19    34    35   ar
    20    35    36   ar
    21    36    37   ar
    22    37    38   ar
    23    22    25    1
    24    25    26   ar
    25    26    27   ar
    26    27    28   ar
    27    28    29    1
    28    28    30   ar
    29    30    31   ar
    30    31    32    1
    31    10    11   ar
    32    11    12    2
    33    11    13   ar
    34    13    14   ar
    35    14    15   ar
    36    15     5   ar
    37    14     8   ar
    38    38    34   ar
    39    31    25   ar
    40     3     4    1
    41    23    24    1
@<TRIPOS>MOLECULE
*****
 38 41 0 0 0
SMALL
GASTEIGER

@<TRIPOS>ATOM
      1 C          63.6475   89.4650   15.4354 C.2     1  UNL1        0.2522
      2 O          62.6349   89.7615   16.5015 O.2     1  UNL1       -0.2699
      3 N          64.0321   88.0455   15.1402 N.am    1  UNL1       -0.2981
      4 H          64.6967   87.8509   14.4404 H       1  UNL1        0.1498
      5 C          66.0796   93.9752   10.8536 C.ar    1  UNL1        0.0509
      6 C          65.3717   92.8704   10.1269 C.ar    1  UNL1        0.0147
      7 C          64.7436   91.7474   10.8979 C.ar    1  UNL1        0.0043
      8 C          64.8236   91.7292   12.3956 C.ar    1  UNL1        0.0351
      9 C          64.1956   90.6062   13.1666 C.ar    1  UNL1        0.0141
     10 C          64.2755   90.5880   14.6643 C.ar    1  UNL1        0.1293
     11 C          64.9835   91.6929   15.3911 C.ar    1  UNL1        0.3502
     12 O          65.0635   91.6747   16.8889 O.2     1  UNL1       -0.2443
     13 O          65.6116   92.8159   14.6201 O.2     1  UNL1       -0.4209
     14 C          65.5316   92.8340   13.1223 C.ar    1  UNL1        0.1499
     15 C          66.1596   93.9570   12.3513 C.ar    1  UNL1        0.0521
     16 N          66.7077   95.0982   10.0825 N.pl3   1  UNL1       -0.3074
     17 C          64.7968   96.8557   10.1808 C.3     1  UNL1        0.0232
     18 C          66.2508   96.5092   10.3065 C.3     1  UNL1        0.0908
     19 C          67.7925   94.8101    9.0876 C.3     1  UNL1        0.0908
     20 C          68.6240   93.5690    9.2228 C.3     1  UNL1        0.0232
     21 C          63.4041   86.9225   15.9112 C.3     1  UNL1        0.1229
     22 C          63.3422   85.5469   15.3164 C.3     1  UNL1        0.1495
     23 O          62.6687   85.0406   16.5573 O.3     1  UNL1       -0.3789
     24 H          62.5612   85.7702   17.1875 H       1  UNL1        0.2108
     25 C          63.2803   84.1713   14.7214 C.ar    1  UNL1        0.0328
     26 C          61.9809   83.4223   14.6973 C.ar    1  UNL1        0.0026
     27 C          61.9191   82.0468   14.1024 C.ar    1  UNL1        0.0295
     28 C          63.1567   81.4201   13.5317 C.ar    1  UNL1        0.1424
     29 F          63.0948   80.0445   12.9367 F       1  UNL1       -0.2041
     30 C          64.4561   82.1691   13.5558 C.ar    1  UNL1        0.0590
     31 C          64.5179   83.5446   14.1507 C.ar    1  UNL1        0.1406
     32 F          65.8173   84.2937   14.1749 F       1  UNL1       -0.2043
     33 C          64.0157   86.0532   14.0754 C.3     1  UNL1        0.1619
     34 N          63.2067   86.3319   12.8434 N.ar    1  UNL1       -0.2273
     35 C          62.6121   85.3033   11.9277 C.ar    1  UNL1        0.1973
     36 N          61.8881   86.0237   10.8292 N.ar    1  UNL1       -0.2007
     37 C          62.0352   87.4976   11.0659 C.ar    1  UNL1        0.2210
     38 N          62.8501   87.6881   12.3108 N.ar    1  UNL1       -0.1451
@<TRIPOS>BOND
     1    17    18    1
     2    18    16    1
     3    16    19    1
     4    19    20    1
     5    16     5    1
     6     5     6   ar
     7     6     7   ar
     8     7     8   ar
     9     8     9   ar
    10     9    10   ar
    11    10     1    1
    12     1     2    2
    13     1     3   am
    14     3    21    1
    15    21    22    1
    16    22    23    1
    17    22    33    1
    18    33    34    1
    19    34    35   ar
    20    35    36   ar
    21    36    37   ar
    22    37    38   ar
    23    22    25    1
    24    25    26   ar
    25    26    27   ar
    26    27    28   ar
    27    28    29    1
    28    28    30   ar
    29    30    31   ar
    30    31    32    1
    31    10    11   ar
    32    11    12    2
    33    11    13   ar
    34    13    14   ar
    35    14    15   ar
    36    15     5   ar
    37    14     8   ar
    38    38    34   ar
    39    31    25   ar
    40     3     4    1
    41    23    24    1
@<TRIPOS>MOLECULE
*****
 38 41 0 0 0
SMALL
GASTEIGER

@<TRIPOS>ATOM
      1 C          63.7971   89.8598   13.0993 C.2     1  UNL1        0.2522
      2 O          62.8127   90.6521   12.2912 O.2     1  UNL1       -0.2699
      3 N          64.9433   90.5528   13.7747 N.am    1  UNL1       -0.2981
      4 H          65.5894   90.0327   14.3051 H       1  UNL1        0.1498
      5 C          62.6602   83.1103   12.4657 C.ar    1  UNL1        0.0509
      6 C          62.3316   83.7875   11.1682 C.ar    1  UNL1        0.0147
      7 C          62.4933   85.2728   11.0355 C.ar    1  UNL1        0.0043
      8 C          62.9835   86.0809   12.2001 C.ar    1  UNL1        0.0351
      9 C          63.1452   87.5663   12.0674 C.ar    1  UNL1        0.0141
     10 C          63.6354   88.3744   13.2321 C.ar    1  UNL1        0.1293
     11 C          63.9640   87.6972   14.5296 C.ar    1  UNL1        0.3502
     12 O          64.4543   88.5054   15.6943 O.2     1  UNL1       -0.2443
     13 O          63.8024   86.2119   14.6624 O.2     1  UNL1       -0.4209
     14 C          63.3121   85.4037   13.4976 C.ar    1  UNL1        0.1499
     15 C          63.1504   83.9184   13.6303 C.ar    1  UNL1        0.0521
     16 N          62.4985   81.6249   12.5984 N.pl3   1  UNL1       -0.3074
     17 C          63.6505   81.2302   10.3034 C.3     1  UNL1        0.0232
     18 C          62.7980   80.7307   11.4320 C.3     1  UNL1        0.0908
     19 C          62.0374   81.0338   13.8976 C.3     1  UNL1        0.0908
     20 C          60.5848   80.7233   14.1067 C.3     1  UNL1        0.0232
     21 C          65.1050   92.0381   13.6419 C.3     1  UNL1        0.1229
     22 C          65.8000   92.6127   12.4433 C.3     1  UNL1        0.1495
     23 O          64.4893   93.1341   11.9332 O.3     1  UNL1       -0.3789
     24 H          63.7830   92.8961   12.5540 H       1  UNL1        0.2108
     25 C          66.4952   93.1874   11.2447 C.ar    1  UNL1        0.0328
     26 C          67.1972   92.2801   10.2783 C.ar    1  UNL1        0.0026
     27 C          67.8922   92.8548    9.0797 C.ar    1  UNL1        0.0295
     28 C          67.8853   94.3367    8.8476 C.ar    1  UNL1        0.1424
     29 F          68.5805   94.9113    7.6489 F       1  UNL1       -0.2041
     30 C          67.1833   95.2439    9.8140 C.ar    1  UNL1        0.0590
     31 C          66.4882   94.6693   11.0125 C.ar    1  UNL1        0.1406
     32 F          65.7862   95.5766   11.9790 F       1  UNL1       -0.2043
     33 C          67.1107   92.0914   12.9534 C.3     1  UNL1        0.1619
     34 N          67.6533   92.5798   14.2638 N.ar    1  UNL1       -0.2273
     35 C          67.5679   93.9837   14.7852 C.ar    1  UNL1        0.1973
     36 N          68.2384   94.0216   16.1265 N.ar    1  UNL1       -0.2007
     37 C          68.7383   92.6412   16.4340 C.ar    1  UNL1        0.2210
     38 N          68.3767   91.7501   15.2828 N.ar    1  UNL1       -0.1451
@<TRIPOS>BOND
     1    17    18    1
     2    18    16    1
     3    16    19    1
     4    19    20    1
     5    16     5    1
     6     5     6   ar
     7     6     7   ar
     8     7     8   ar
     9     8     9   ar
    10     9    10   ar
    11    10     1    1
    12     1     2    2
    13     1     3   am
    14     3    21    1
    15    21    22    1
    16    22    23    1
    17    22    33    1
    18    33    34    1
    19    34    35   ar
    20    35    36   ar
    21    36    37   ar
    22    37    38   ar
    23    22    25    1
    24    25    26   ar
    25    26    27   ar
    26    27    28   ar
    27    28    29    1
    28    28    30   ar
    29    30    31   ar
    30    31    32    1
    31    10    11   ar
    32    11    12    2
    33    11    13   ar
    34    13    14   ar
    35    14    15   ar
    36    15     5   ar
    37    14     8   ar
    38    38    34   ar
    39    31    25   ar
    40     3     4    1
    41    23    24    1
@<TRIPOS>MOLECULE
*****
 38 41 0 0 0
SMALL
GASTEIGER

@<TRIPOS>ATOM
      1 C          63.8029   88.4594   14.5577 C.2     1  UNL1        0.2522
      2 O          63.3122   88.7729   15.9400 O.2     1  UNL1       -0.2699
      3 N          64.0109   87.0335   14.1411 N.am    1  UNL1       -0.2981
      4 H          64.3329   86.8277   13.2338 H       1  UNL1        0.1498
      5 C          66.0540   93.8697   10.9645 C.ar    1  UNL1        0.0509
      6 C          66.8910   93.7182   12.2000 C.ar    1  UNL1        0.0147
      7 C          66.6082   92.6058   13.1657 C.ar    1  UNL1        0.0043
      8 C          65.4884   91.6450   12.8960 C.ar    1  UNL1        0.0351
      9 C          65.2056   90.5326   13.8617 C.ar    1  UNL1        0.0141
     10 C          64.0857   89.5718   13.5920 C.ar    1  UNL1        0.1293
     11 C          63.2486   89.7233   12.3565 C.ar    1  UNL1        0.3502
     12 O          62.1288   88.7625   12.0868 O.2     1  UNL1       -0.2443
     13 O          63.5314   90.8357   11.3908 O.2     1  UNL1       -0.4209
     14 C          64.6514   91.7966   11.6605 C.ar    1  UNL1        0.1499
     15 C          64.9342   92.9089   10.6948 C.ar    1  UNL1        0.0521
     16 N          66.3368   94.9821    9.9988 N.pl3   1  UNL1       -0.3074
     17 C          68.3528   93.9263    8.7454 C.3     1  UNL1        0.0232
     18 C          67.0664   94.6974    8.7195 C.3     1  UNL1        0.0908
     19 C          65.8900   96.3792   10.3123 C.3     1  UNL1        0.0908
     20 C          65.8552   96.8541   11.7348 C.3     1  UNL1        0.0232
     21 C          63.7280   85.9211   15.1068 C.3     1  UNL1        0.1229
     22 C          63.4578   84.5363   14.5975 C.3     1  UNL1        0.1495
     23 O          62.8706   84.1623   15.9262 O.3     1  UNL1       -0.3789
     24 H          62.9089   84.9260   16.5231 H       1  UNL1        0.2108
     25 C          63.1875   83.1515   14.0882 C.ar    1  UNL1        0.0328
     26 C          64.2237   82.4369   13.2724 C.ar    1  UNL1        0.0026
     27 C          63.9534   81.0522   12.7632 C.ar    1  UNL1        0.0295
     28 C          62.6469   80.3821   13.0697 C.ar    1  UNL1        0.1424
     29 F          62.3767   78.9973   12.5603 F       1  UNL1       -0.2041
     30 C          61.6107   81.0967   13.8855 C.ar    1  UNL1        0.0590
     31 C          61.8810   82.4814   14.3947 C.ar    1  UNL1        0.1406
     32 F          60.8448   83.1961   15.2106 F       1  UNL1       -0.2043
     33 C          64.0449   84.9104   13.2689 C.3     1  UNL1        0.1619
     34 N          63.1513   85.0877   12.0772 N.ar    1  UNL1       -0.2273
     35 C          63.3879   84.5264   10.7065 C.ar    1  UNL1        0.1973
     36 N          62.2471   84.9493    9.8291 N.ar    1  UNL1       -0.2007
     37 C          61.3054   85.7720   10.6577 C.ar    1  UNL1        0.2210
     38 N          61.8643   85.8576   12.0471 N.ar    1  UNL1       -0.1451
@<TRIPOS>BOND
     1    17    18    1
     2    18    16    1
     3    16    19    1
     4    19    20    1
     5    16     5    1
     6     5     6   ar
     7     6     7   ar
     8     7     8   ar
     9     8     9   ar
    10     9    10   ar
    11    10     1    1
    12     1     2    2
    13     1     3   am
    14     3    21    1
    15    21    22    1
    16    22    23    1
    17    22    33    1
    18    33    34    1
    19    34    35   ar
    20    35    36   ar
    21    36    37   ar
    22    37    38   ar
    23    22    25    1
    24    25    26   ar
    25    26    27   ar
    26    27    28   ar
    27    28    29    1
    28    28    30   ar
    29    30    31   ar
    30    31    32    1
    31    10    11   ar
    32    11    12    2
    33    11    13   ar
    34    13    14   ar
    35    14    15   ar
    36    15     5   ar
    37    14     8   ar
    38    38    34   ar
    39    31    25   ar
    40     3     4    1
    41    23    24    1
