@<TRIPOS>MOLECULE
*****
 38 41 0 0 0
SMALL
GASTEIGER

@<TRIPOS>ATOM
      1 C          64.2473   89.9330   13.8790 C.2     1  UNL1        0.2522
      2 O          64.1186   90.4200   15.2918 O.2     1  UNL1       -0.2699
      3 N          64.7597   90.8544   12.8118 N.am    1  UNL1       -0.2981
      4 H          64.8442   90.5348   11.8845 H       1  UNL1        0.1498
      5 C          63.1600   83.1650   13.3683 C.ar    1  UNL1        0.0509
      6 C          63.9908   83.4382   14.5869 C.ar    1  UNL1        0.0147
      7 C          64.3745   84.8465   14.9327 C.ar    1  UNL1        0.0043
      8 C          63.9273   85.9815   14.0600 C.ar    1  UNL1        0.0351
      9 C          64.3109   87.3898   14.4058 C.ar    1  UNL1        0.0141
     10 C          63.8637   88.5248   13.5331 C.ar    1  UNL1        0.1293
     11 C          63.0328   88.2516   12.3145 C.ar    1  UNL1        0.3502
     12 O          62.5856   89.3866   11.4417 O.2     1  UNL1       -0.2443
     13 O          62.6491   86.8433   11.9686 O.2     1  UNL1       -0.4209
     14 C          63.0964   85.7082   12.8414 C.ar    1  UNL1        0.1499
     15 C          62.7128   84.3000   12.4956 C.ar    1  UNL1        0.0521
     16 N          62.7763   81.7567   13.0225 N.pl3   1  UNL1       -0.3074
     17 C          60.6781   80.6835   14.1159 C.3     1  UNL1        0.0232
     18 C          62.1659   80.8680   14.0653 C.3     1  UNL1        0.0908
     19 C          63.0031   81.2371   11.6338 C.3     1  UNL1        0.0908
     20 C          63.7890   82.0498   10.6479 C.3     1  UNL1        0.0232
     21 C          65.1434   92.2626   13.1577 C.3     1  UNL1        0.1229
     22 C          65.6666   93.1805   12.0929 C.3     1  UNL1        0.1482
     23 O          64.9654   92.3661   11.0464 O.3     1  UNL1       -0.3790
     24 H          64.4952   91.6310   11.4700 H       1  UNL1        0.2108
     25 C          66.1898   94.0983   11.0281 C.ar    1  UNL1        0.0159
     26 C          65.6345   95.4853   10.8941 C.ar    1  UNL1       -0.0002
     27 C          66.1577   96.4031    9.8294 C.ar    1  UNL1        0.0112
     28 C          67.2364   95.9340    8.8986 C.ar    1  UNL1        0.0585
     29 CL         67.7597   96.8518    7.8337 Cl      1  UNL1       -0.0822
     30 C          67.7918   94.5470    9.0325 C.ar    1  UNL1        0.0225
     31 C          67.2685   93.6292   10.0973 C.ar    1  UNL1        0.0568
     32 CL         67.8239   92.2422   10.2312 Cl      1  UNL1       -0.0825
     33 C          66.3678   93.9948   13.1394 C.3     1  UNL1        0.1618
     34 N          67.2352   93.3186   14.1593 N.ar    1  UNL1       -0.2273
     35 C          67.0221   93.3288   15.6441 C.ar    1  UNL1        0.1973
     36 N          68.1233   92.5301   16.2760 N.ar    1  UNL1       -0.2007
     37 C          69.0171   92.0262   15.1818 C.ar    1  UNL1        0.2210
     38 N          68.4683   92.5135   13.8736 N.ar    1  UNL1       -0.1451
@<TRIPOS>BOND
     1    17    18    1
     2    18    16    1
     3    16    19    1
     4    19    20    1
     5    16     5    1
     6     5     6   ar
     7     6     7   ar
     8     7     8   ar
     9     8     9   ar
    10     9    10   ar
    11    10     1    1
    12     1     2    2
    13     1     3   am
    14     3    21    1
    15    21    22    1
    16    22    23    1
    17    22    33    1
    18    33    34    1
    19    34    35   ar
    20    35    36   ar
    21    36    37   ar
    22    37    38   ar
    23    22    25    1
    24    25    26   ar
    25    26    27   ar
    26    27    28   ar
    27    28    29    1
    28    28    30   ar
    29    30    31   ar
    30    31    32    1
    31    10    11   ar
    32    11    12    2
    33    11    13   ar
    34    13    14   ar
    35    14    15   ar
    36    15     5   ar
    37    14     8   ar
    38    38    34   ar
    39    31    25   ar
    40     3     4    1
    41    23    24    1
@<TRIPOS>MOLECULE
*****
 38 41 0 0 0
SMALL
GASTEIGER

@<TRIPOS>ATOM
      1 C          59.0197   89.7230    6.3224 C.2     1  UNL1        0.2522
      2 O          57.5499   89.5227    6.5446 O.2     1  UNL1       -0.2699
      3 N          60.0137   88.9471    7.1349 N.am    1  UNL1       -0.2981
      4 H          60.9784   89.0785    6.9890 H       1  UNL1        0.1498
      5 C          62.3490   93.5913    1.7179 C.ar    1  UNL1        0.0509
      6 C          63.2985   92.5791    2.2869 C.ar    1  UNL1        0.0147
      7 C          62.8225   91.6030    3.3217 C.ar    1  UNL1        0.0043
      8 C          61.3971   91.6391    3.7873 C.ar    1  UNL1        0.0351
      9 C          60.9211   90.6630    4.8220 C.ar    1  UNL1        0.0141
     10 C          59.4957   90.6991    5.2876 C.ar    1  UNL1        0.1293
     11 C          58.5462   91.7114    4.7186 C.ar    1  UNL1        0.3502
     12 O          57.1208   91.7475    5.1842 O.2     1  UNL1       -0.2443
     13 O          59.0222   92.6875    3.6839 O.2     1  UNL1       -0.4209
     14 C          60.4477   92.6513    3.2182 C.ar    1  UNL1        0.1499
     15 C          60.9236   93.6275    2.1835 C.ar    1  UNL1        0.0521
     16 N          62.8250   94.5675    0.6832 N.pl3   1  UNL1       -0.3074
     17 C          61.9442   93.2538   -1.3780 C.3     1  UNL1        0.0232
     18 C          62.9821   94.1312   -0.7434 C.3     1  UNL1        0.0908
     19 C          63.1439   95.9798    1.0750 C.3     1  UNL1        0.0908
     20 C          64.2974   96.2617    1.9915 C.3     1  UNL1        0.0232
     21 C          59.5377   87.9710    8.1696 C.3     1  UNL1        0.1229
     22 C          60.5042   87.0081    8.7931 C.3     1  UNL1        0.1482
     23 O          59.8423   85.8741    8.0680 O.3     1  UNL1       -0.3790
     24 H          59.1104   86.2167    7.5315 H       1  UNL1        0.2108
     25 C          61.4707   86.0453    9.4167 C.ar    1  UNL1        0.0159
     26 C          61.5155   85.8875   10.9077 C.ar    1  UNL1       -0.0002
     27 C          62.4820   84.9247   11.5312 C.ar    1  UNL1        0.0112
     28 C          63.4037   84.1197   10.6638 C.ar    1  UNL1        0.0585
     29 CL         64.3703   83.1569   11.2874 Cl      1  UNL1       -0.0822
     30 C          63.3589   84.2775    9.1728 C.ar    1  UNL1        0.0225
     31 C          62.3924   85.2403    8.5493 C.ar    1  UNL1        0.0568
     32 CL         62.3475   85.3981    7.0583 Cl      1  UNL1       -0.0825
     33 C          61.1660   88.1421    9.5183 C.3     1  UNL1        0.1618
     34 N          60.3756   88.9824   10.4770 N.ar    1  UNL1       -0.2273
     35 C          60.1166   90.4547   10.3526 C.ar    1  UNL1        0.1973
     36 N          59.2863   90.8802   11.5272 N.ar    1  UNL1       -0.2007
     37 C          59.0322   89.6709   12.3776 C.ar    1  UNL1        0.2210
     38 N          59.7054   88.4980   11.7286 N.ar    1  UNL1       -0.1451
@<TRIPOS>BOND
     1    17    18    1
     2    18    16    1
     3    16    19    1
     4    19    20    1
     5    16     5    1
     6     5     6   ar
     7     6     7   ar
     8     7     8   ar
     9     8     9   ar
    10     9    10   ar
    11    10     1    1
    12     1     2    2
    13     1     3   am
    14     3    21    1
    15    21    22    1
    16    22    23    1
    17    22    33    1
    18    33    34    1
    19    34    35   ar
    20    35    36   ar
    21    36    37   ar
    22    37    38   ar
    23    22    25    1
    24    25    26   ar
    25    26    27   ar
    26    27    28   ar
    27    28    29    1
    28    28    30   ar
    29    30    31   ar
    30    31    32    1
    31    10    11   ar
    32    11    12    2
    33    11    13   ar
    34    13    14   ar
    35    14    15   ar
    36    15     5   ar
    37    14     8   ar
    38    38    34   ar
    39    31    25   ar
    40     3     4    1
    41    23    24    1
@<TRIPOS>MOLECULE
*****
 38 41 0 0 0
SMALL
GASTEIGER

@<TRIPOS>ATOM
      1 C          63.5933   88.7850   14.9125 C.2     1  UNL1        0.2522
      2 O          62.8698   89.1586   16.1722 O.2     1  UNL1       -0.2699
      3 N          63.9116   87.3469   14.6287 N.am    1  UNL1       -0.2981
      4 H          64.3865   87.1017   13.8019 H       1  UNL1        0.1498
      5 C          66.2089   94.0910   11.4118 C.ar    1  UNL1        0.0509
      6 C          66.7983   94.0743   12.7910 C.ar    1  UNL1        0.0147
      7 C          66.3931   93.0098   13.7670 C.ar    1  UNL1        0.0043
      8 C          65.3984   91.9619   13.3638 C.ar    1  UNL1        0.0351
      9 C          64.9932   90.8974   14.3397 C.ar    1  UNL1        0.0141
     10 C          63.9985   89.8496   13.9365 C.ar    1  UNL1        0.1293
     11 C          63.4091   89.8662   12.5572 C.ar    1  UNL1        0.3502
     12 O          62.4144   88.8184   12.1540 O.2     1  UNL1       -0.2443
     13 O          63.8143   90.9307   11.5812 O.2     1  UNL1       -0.4209
     14 C          64.8090   91.9786   11.9845 C.ar    1  UNL1        0.1499
     15 C          65.2143   93.0432   11.0086 C.ar    1  UNL1        0.0521
     16 N          66.6142   95.1555   10.4358 N.pl3   1  UNL1       -0.3074
     17 C          64.6324   96.7528    9.9147 C.3     1  UNL1        0.0232
     18 C          65.9894   96.5173   10.5090 C.3     1  UNL1        0.0908
     19 C          67.6442   94.8584    9.3867 C.3     1  UNL1        0.0908
     20 C          68.1410   93.4555    9.1995 C.3     1  UNL1        0.0232
     21 C          63.5064   86.2823   15.6047 C.3     1  UNL1        0.1229
     22 C          63.2594   84.8820   15.1274 C.3     1  UNL1        0.1482
     23 O          62.5380   84.5734   16.4058 O.3     1  UNL1       -0.3790
     24 H          62.5331   85.3607   16.9724 H       1  UNL1        0.2108
     25 C          63.0124   83.4815   14.6500 C.ar    1  UNL1        0.0159
     26 C          61.6137   82.9418   14.6001 C.ar    1  UNL1       -0.0002
     27 C          61.3668   81.5415   14.1228 C.ar    1  UNL1        0.0112
     28 C          62.5185   80.6808   13.6953 C.ar    1  UNL1        0.0585
     29 CL         62.2715   79.2803   13.2179 Cl      1  UNL1       -0.0822
     30 C          63.9172   81.2204   13.7451 C.ar    1  UNL1        0.0225
     31 C          64.1641   82.6208   14.2225 C.ar    1  UNL1        0.0568
     32 CL         65.5628   83.1605   14.2724 Cl      1  UNL1       -0.0825
     33 C          63.9807   85.1905   13.8490 C.3     1  UNL1        0.1618
     34 N          63.2375   85.1760   12.5461 N.ar    1  UNL1       -0.2273
     35 C          63.6077   84.3818   11.3287 C.ar    1  UNL1        0.1973
     36 N          62.5926   84.6681   10.2621 N.ar    1  UNL1       -0.2007
     37 C          61.5950   85.6393   10.8203 C.ar    1  UNL1        0.2210
     38 N          61.9936   85.9532   12.2320 N.ar    1  UNL1       -0.1451
@<TRIPOS>BOND
     1    17    18    1
     2    18    16    1
     3    16    19    1
     4    19    20    1
     5    16     5    1
     6     5     6   ar
     7     6     7   ar
     8     7     8   ar
     9     8     9   ar
    10     9    10   ar
    11    10     1    1
    12     1     2    2
    13     1     3   am
    14     3    21    1
    15    21    22    1
    16    22    23    1
    17    22    33    1
    18    33    34    1
    19    34    35   ar
    20    35    36   ar
    21    36    37   ar
    22    37    38   ar
    23    22    25    1
    24    25    26   ar
    25    26    27   ar
    26    27    28   ar
    27    28    29    1
    28    28    30   ar
    29    30    31   ar
    30    31    32    1
    31    10    11   ar
    32    11    12    2
    33    11    13   ar
    34    13    14   ar
    35    14    15   ar
    36    15     5   ar
    37    14     8   ar
    38    38    34   ar
    39    31    25   ar
    40     3     4    1
    41    23    24    1
@<TRIPOS>MOLECULE
*****
 38 41 0 0 0
SMALL
GASTEIGER

@<TRIPOS>ATOM
      1 C          59.4594   89.5564    7.0234 C.2     1  UNL1        0.2522
      2 O          58.5523   88.3621    6.9949 O.2     1  UNL1       -0.2699
      3 N          60.2587   89.8620    8.2554 N.am    1  UNL1       -0.2981
      4 H          60.8541   90.6458    8.2741 H       1  UNL1        0.1498
      5 C          61.2287   93.3594    1.5776 C.ar    1  UNL1        0.0509
      6 C          62.4585   92.7187    2.1495 C.ar    1  UNL1        0.0147
      7 C          62.3506   91.8300    3.3530 C.ar    1  UNL1        0.0043
      8 C          61.0129   91.5819    3.9847 C.ar    1  UNL1        0.0351
      9 C          60.9050   90.6932    5.1882 C.ar    1  UNL1        0.0141
     10 C          59.5673   90.4451    5.8198 C.ar    1  UNL1        0.1293
     11 C          58.3374   91.0858    5.2479 C.ar    1  UNL1        0.3502
     12 O          56.9998   90.8377    5.8796 O.2     1  UNL1       -0.2443
     13 O          58.4453   91.9745    4.0444 O.2     1  UNL1       -0.4209
     14 C          59.7831   92.2226    3.4128 C.ar    1  UNL1        0.1499
     15 C          59.8910   93.1113    2.2092 C.ar    1  UNL1        0.0521
     16 N          61.3366   94.2481    0.3740 N.pl3   1  UNL1       -0.3074
     17 C          61.4014   96.5307    1.6131 C.3     1  UNL1        0.0232
     18 C          61.8899   95.6353    0.5132 C.3     1  UNL1        0.0908
     19 C          60.8912   93.7496   -0.9687 C.3     1  UNL1        0.0908
     20 C          61.8738   93.6577   -2.0984 C.3     1  UNL1        0.0232
     21 C          60.1508   88.9732    9.4590 C.3     1  UNL1        0.1229
     22 C          60.9851   87.7301    9.5505 C.3     1  UNL1        0.1482
     23 O          59.7398   86.8940    9.5468 O.3     1  UNL1       -0.3790
     24 H          58.9627   87.4718    9.4902 H       1  UNL1        0.2108
     25 C          61.8195   86.4869    9.6421 C.ar    1  UNL1        0.0159
     26 C          62.5108   85.9560    8.4213 C.ar    1  UNL1       -0.0002
     27 C          63.3452   84.7129    8.5129 C.ar    1  UNL1        0.0112
     28 C          63.4882   84.0006    9.8253 C.ar    1  UNL1        0.0585
     29 CL         64.3226   82.7574    9.9168 Cl      1  UNL1       -0.0822
     30 C          62.7969   84.5314   11.0460 C.ar    1  UNL1        0.0225
     31 C          61.9625   85.7746   10.9544 C.ar    1  UNL1        0.0568
     32 CL         61.2711   86.3055   12.1752 Cl      1  UNL1       -0.0825
     33 C          62.2305   88.5661    9.5542 C.3     1  UNL1        0.1618
     34 N          62.5769   89.3903   10.7587 N.ar    1  UNL1       -0.2273
     35 C          63.2154   90.7476   10.7443 C.ar    1  UNL1        0.1973
     36 N          63.3788   91.1981   12.1657 N.ar    1  UNL1       -0.2007
     37 C          62.8413   90.1193   13.0585 C.ar    1  UNL1        0.2210
     38 N          62.3457   89.0020   12.1890 N.ar    1  UNL1       -0.1451
@<TRIPOS>BOND
     1    17    18    1
     2    18    16    1
     3    16    19    1
     4    19    20    1
     5    16     5    1
     6     5     6   ar
     7     6     7   ar
     8     7     8   ar
     9     8     9   ar
    10     9    10   ar
    11    10     1    1
    12     1     2    2
    13     1     3   am
    14     3    21    1
    15    21    22    1
    16    22    23    1
    17    22    33    1
    18    33    34    1
    19    34    35   ar
    20    35    36   ar
    21    36    37   ar
    22    37    38   ar
    23    22    25    1
    24    25    26   ar
    25    26    27   ar
    26    27    28   ar
    27    28    29    1
    28    28    30   ar
    29    30    31   ar
    30    31    32    1
    31    10    11   ar
    32    11    12    2
    33    11    13   ar
    34    13    14   ar
    35    14    15   ar
    36    15     5   ar
    37    14     8   ar
    38    38    34   ar
    39    31    25   ar
    40     3     4    1
    41    23    24    1
@<TRIPOS>MOLECULE
*****
 38 41 0 0 0
SMALL
GASTEIGER

@<TRIPOS>ATOM
      1 C          63.7987   89.8115   14.0242 C.2     1  UNL1        0.2522
      2 O          62.9351   90.5388   15.0117 O.2     1  UNL1       -0.2699
      3 N          64.7869   90.5712   13.1896 N.am    1  UNL1       -0.2981
      4 H          65.3537   90.0939   12.5414 H       1  UNL1        0.1498
      5 C          63.0478   83.2674   12.0592 C.ar    1  UNL1        0.0509
      6 C          62.9193   84.1582   10.8593 C.ar    1  UNL1        0.0147
      7 C          63.0438   85.6452   11.0123 C.ar    1  UNL1        0.0043
      8 C          63.2968   86.2414   12.3652 C.ar    1  UNL1        0.0351
      9 C          63.4213   87.7283   12.5182 C.ar    1  UNL1        0.0141
     10 C          63.6742   88.3245   13.8712 C.ar    1  UNL1        0.1293
     11 C          63.8028   87.4337   15.0712 C.ar    1  UNL1        0.3502
     12 O          64.0557   88.0299   16.4242 O.2     1  UNL1       -0.2443
     13 O          63.6783   85.9467   14.9182 O.2     1  UNL1       -0.4209
     14 C          63.4253   85.3506   13.5652 C.ar    1  UNL1        0.1499
     15 C          63.3008   83.8636   13.4122 C.ar    1  UNL1        0.0521
     16 N          62.9233   81.7804   11.9062 N.pl3   1  UNL1       -0.3074
     17 C          62.9316   79.6685   10.3931 C.3     1  UNL1        0.0232
     18 C          62.9659   81.1608   10.5409 C.3     1  UNL1        0.0908
     19 C          62.7563   80.9131   13.1185 C.3     1  UNL1        0.0908
     20 C          61.4167   80.8055   13.7849 C.3     1  UNL1        0.0232
     21 C          64.9113   92.0582   13.3426 C.3     1  UNL1        0.1229
     22 C          65.5116   92.8780   12.2392 C.3     1  UNL1        0.1482
     23 O          64.8489   91.9958   11.2231 O.3     1  UNL1       -0.3790
     24 H          64.3401   91.3058   11.6768 H       1  UNL1        0.2108
     25 C          66.1120   93.6980   11.1358 C.ar    1  UNL1        0.0159
     26 C          65.5444   95.0478   10.8104 C.ar    1  UNL1       -0.0002
     27 C          66.1448   95.8676    9.7071 C.ar    1  UNL1        0.0112
     28 C          67.3126   95.3377    8.9292 C.ar    1  UNL1        0.0585
     29 CL         67.9130   96.1576    7.8258 Cl      1  UNL1       -0.0822
     30 C          67.8802   93.9879    9.2545 C.ar    1  UNL1        0.0225
     31 C          67.2799   93.1680   10.3579 C.ar    1  UNL1        0.0568
     32 CL         67.8474   91.8182   10.6833 Cl      1  UNL1       -0.0825
     33 C          66.1743   93.7603   13.2553 C.3     1  UNL1        0.1618
     34 N          67.1936   93.1876   14.1950 N.ar    1  UNL1       -0.2273
     35 C          67.1168   93.1994   15.6929 C.ar    1  UNL1        0.1973
     36 N          68.3445   92.5216   16.2255 N.ar    1  UNL1       -0.2007
     37 C          69.1800   92.0909   15.0566 C.ar    1  UNL1        0.2210
     38 N          68.4688   92.5024   13.8016 N.ar    1  UNL1       -0.1451
@<TRIPOS>BOND
     1    17    18    1
     2    18    16    1
     3    16    19    1
     4    19    20    1
     5    16     5    1
     6     5     6   ar
     7     6     7   ar
     8     7     8   ar
     9     8     9   ar
    10     9    10   ar
    11    10     1    1
    12     1     2    2
    13     1     3   am
    14     3    21    1
    15    21    22    1
    16    22    23    1
    17    22    33    1
    18    33    34    1
    19    34    35   ar
    20    35    36   ar
    21    36    37   ar
    22    37    38   ar
    23    22    25    1
    24    25    26   ar
    25    26    27   ar
    26    27    28   ar
    27    28    29    1
    28    28    30   ar
    29    30    31   ar
    30    31    32    1
    31    10    11   ar
    32    11    12    2
    33    11    13   ar
    34    13    14   ar
    35    14    15   ar
    36    15     5   ar
    37    14     8   ar
    38    38    34   ar
    39    31    25   ar
    40     3     4    1
    41    23    24    1
