@<TRIPOS>MOLECULE
*****
 31 34 0 0 0
SMALL
GASTEIGER

@<TRIPOS>ATOM
      1 N          63.1474   90.2676   11.6606 N.am    1  UNL1       -0.2496
      2 C          64.0633   91.3911   11.2745 C.3     1  UNL1        0.1267
      3 C          64.8031   91.8292   12.5036 C.ar    1  UNL1        0.0200
      4 C          64.3445   90.9765   13.6493 C.ar    1  UNL1        0.1322
      5 N          64.9179   91.1890   15.0190 N.ar    1  UNL1       -0.2456
      6 C          65.9499   92.2542   15.2430 C.ar    1  UNL1        0.0568
      7 C          66.5233   92.4667   16.6127 C.3     1  UNL1        0.0518
      8 C          66.4085   93.1069   14.0974 C.ar    1  UNL1        0.0068
      9 C          65.8351   92.8944   12.7276 C.ar    1  UNL1       -0.0015
     10 C          63.3212   90.0113   13.1283 C.2     1  UNL1        0.2705
     11 O          62.5986   88.9724   13.9335 O.2     1  UNL1       -0.2679
     12 C          66.2937   93.7472   11.5820 C.ar    1  UNL1        0.0102
     13 C          65.7234   95.1219   11.3949 C.ar    1  UNL1        0.0017
     14 C          66.1821   95.9745   10.2492 C.ar    1  UNL1        0.0114
     15 C          67.2111   95.4526    9.2907 C.ar    1  UNL1        0.0585
     16 CL         67.6697   96.3053    8.1451 Cl      1  UNL1       -0.0822
     17 C          67.7813   94.0779    9.4778 C.ar    1  UNL1        0.0228
     18 C          67.3227   93.2252   10.6234 C.ar    1  UNL1        0.0585
     19 CL         67.8929   91.8505   10.8106 Cl      1  UNL1       -0.0822
     20 C          60.3666   88.0544    8.9002 C.ar    1  UNL1        0.1388
     21 C          60.1531   89.5150    9.1670 C.ar    1  UNL1        0.0382
     22 C          61.0801   90.2527   10.0871 C.ar    1  UNL1        0.0180
     23 C          62.2205   89.5299   10.7405 C.ar    1  UNL1        0.0547
     24 C          62.4341   88.0693   10.4737 C.ar    1  UNL1        0.0180
     25 C          61.5071   87.3316    9.5536 C.ar    1  UNL1        0.0382
     26 C          59.8314   85.9732    7.4402 C.3     1  UNL1        0.2525
     27 O          59.4397   87.3167    7.9801 O.3     1  UNL1       -0.4714
     28 C          67.4406   94.1722   14.3214 C.3     1  UNL1        0.0934
     29 N          68.7263   93.8364   15.0172 N.3     1  UNL1       -0.3174
     30 H          68.5321   93.5806   15.9853 H       1  UNL1        0.1192
     31 H          69.3454   94.6468   14.9973 H       1  UNL1        0.1192
@<TRIPOS>BOND
     1    26    27    1
     2    27    20    1
     3    20    21   ar
     4    21    22   ar
     5    22    23   ar
     6    23     1    1
     7     1     2    1
     8     2     3    1
     9     3     4   ar
    10     4     5   ar
    11     5     6   ar
    12     6     7    1
    13     6     8   ar
    14     8    28    1
    15    28    29    1
    16     8     9   ar
    17     9    12    1
    18    12    13   ar
    19    13    14   ar
    20    14    15   ar
    21    15    16    1
    22    15    17   ar
    23    17    18   ar
    24    18    19    1
    25     4    10    1
    26    10    11    2
    27    23    24   ar
    28    24    25   ar
    29    25    20   ar
    30    10     1   am
    31     9     3   ar
    32    18    12   ar
    33    29    30    1
    34    29    31    1
@<TRIPOS>MOLECULE
*****
 31 34 0 0 0
SMALL
GASTEIGER

@<TRIPOS>ATOM
      1 N          63.0851   89.7936   12.0849 N.am    1  UNL1       -0.2496
      2 C          63.0941   88.3166   11.8235 C.3     1  UNL1        0.1267
      3 C          62.1355   88.0382   10.7039 C.ar    1  UNL1        0.0200
      4 C          61.5340   89.3432   10.2734 C.ar    1  UNL1        0.1322
      5 N          60.5295   89.3749    9.1598 N.ar    1  UNL1       -0.2456
      6 C          60.1266   88.1017    8.4768 C.ar    1  UNL1        0.0568
      7 C          59.1221   88.1335    7.3631 C.3     1  UNL1        0.0518
      8 C          60.7281   86.7968    8.9072 C.ar    1  UNL1        0.0068
      9 C          61.7326   86.7650   10.0209 C.ar    1  UNL1       -0.0015
     10 C          62.1209   90.4281   11.1269 C.2     1  UNL1        0.2705
     11 O          61.7999   91.8906   11.0380 O.2     1  UNL1       -0.2679
     12 C          62.3340   85.4600   10.4514 C.ar    1  UNL1        0.0102
     13 C          62.0254   84.9038   11.8098 C.ar    1  UNL1        0.0017
     14 C          62.6269   83.5988   12.2401 C.ar    1  UNL1        0.0114
     15 C          63.5370   82.8502   11.3121 C.ar    1  UNL1        0.0585
     16 CL         64.1385   81.5452   11.7425 Cl      1  UNL1       -0.0822
     17 C          63.8456   83.4064    9.9537 C.ar    1  UNL1        0.0228
     18 C          63.2441   84.7114    9.5233 C.ar    1  UNL1        0.0585
     19 CL         63.5527   85.2677    8.1649 Cl      1  UNL1       -0.0822
     20 C          65.5228   91.9441   15.1968 C.ar    1  UNL1        0.1388
     21 C          65.7774   92.1943   13.7399 C.ar    1  UNL1        0.0382
     22 C          64.9648   91.4774   12.7026 C.ar    1  UNL1        0.0180
     23 C          63.8976   90.5104   13.1222 C.ar    1  UNL1        0.0547
     24 C          63.6430   90.2602   14.5791 C.ar    1  UNL1        0.0180
     25 C          64.4556   90.9771   15.6164 C.ar    1  UNL1        0.0382
     26 C          67.7101   93.1579   15.8982 C.3     1  UNL1        0.2525
     27 O          66.3353   92.6608   16.2341 O.3     1  UNL1       -0.4714
     28 C          60.3251   85.5235    8.2241 C.3     1  UNL1        0.0934
     29 N          60.6697   85.3053    6.7807 N.3     1  UNL1       -0.3174
     30 H          60.1615   85.9763    6.2046 H       1  UNL1        0.1192
     31 H          60.4092   84.3575    6.5084 H       1  UNL1        0.1192
@<TRIPOS>BOND
     1    26    27    1
     2    27    20    1
     3    20    21   ar
     4    21    22   ar
     5    22    23   ar
     6    23     1    1
     7     1     2    1
     8     2     3    1
     9     3     4   ar
    10     4     5   ar
    11     5     6   ar
    12     6     7    1
    13     6     8   ar
    14     8    28    1
    15    28    29    1
    16     8     9   ar
    17     9    12    1
    18    12    13   ar
    19    13    14   ar
    20    14    15   ar
    21    15    16    1
    22    15    17   ar
    23    17    18   ar
    24    18    19    1
    25     4    10    1
    26    10    11    2
    27    23    24   ar
    28    24    25   ar
    29    25    20   ar
    30    10     1   am
    31     9     3   ar
    32    18    12   ar
    33    29    30    1
    34    29    31    1
@<TRIPOS>MOLECULE
*****
 31 34 0 0 0
SMALL
GASTEIGER

@<TRIPOS>ATOM
      1 N          64.3725   90.2627   13.7008 N.am    1  UNL1       -0.2496
      2 C          64.2377   88.8165   13.3258 C.3     1  UNL1        0.1267
      3 C          63.8097   88.0589   14.5477 C.ar    1  UNL1        0.0200
      4 C          63.6800   89.0368   15.6777 C.ar    1  UNL1        0.1322
      5 N          63.2620   88.5607   17.0373 N.ar    1  UNL1       -0.2456
      6 C          62.9736   87.1067   17.2669 C.ar    1  UNL1        0.0568
      7 C          62.5555   86.6306   18.6265 C.3     1  UNL1        0.0518
      8 C          63.1033   86.1289   16.1369 C.ar    1  UNL1        0.0068
      9 C          63.5213   86.6050   14.7772 C.ar    1  UNL1       -0.0015
     10 C          64.0279   90.3988   15.1543 C.2     1  UNL1        0.2705
     11 O          64.0306   91.6732   15.9454 O.2     1  UNL1       -0.2679
     12 C          63.6510   85.6270   13.6472 C.ar    1  UNL1        0.0102
     13 C          62.6408   85.6238   12.5385 C.ar    1  UNL1        0.0017
     14 C          62.7705   84.6459   11.4085 C.ar    1  UNL1        0.0114
     15 C          63.9104   83.6711   11.3874 C.ar    1  UNL1        0.0585
     16 CL         64.0402   82.6932   10.2575 Cl      1  UNL1       -0.0822
     17 C          64.9206   83.6743   12.4962 C.ar    1  UNL1        0.0228
     18 C          64.7909   84.6523   13.6261 C.ar    1  UNL1        0.0585
     19 CL         65.8011   84.6555   14.7349 Cl      1  UNL1       -0.0822
     20 C          65.5960   93.6058   10.9481 C.ar    1  UNL1        0.1388
     21 C          64.5954   92.5861   10.4910 C.ar    1  UNL1        0.0382
     22 C          64.1876   91.4717   11.4086 C.ar    1  UNL1        0.0180
     23 C          64.7804   91.3770   12.7832 C.ar    1  UNL1        0.0547
     24 C          65.7810   92.3967   13.2404 C.ar    1  UNL1        0.0180
     25 C          66.1888   93.5111   12.3228 C.ar    1  UNL1        0.0382
     26 C          67.3197   94.6574    9.3133 C.3     1  UNL1        0.2525
     27 O          66.0039   94.7202   10.0306 O.3     1  UNL1       -0.4714
     28 C          62.8149   84.6748   16.3665 C.3     1  UNL1        0.0934
     29 N          61.8199   83.9615   15.4997 N.3     1  UNL1       -0.3174
     30 H          60.8897   84.3476   15.6614 H       1  UNL1        0.1192
     31 H          61.8200   82.9676   15.7290 H       1  UNL1        0.1192
@<TRIPOS>BOND
     1    26    27    1
     2    27    20    1
     3    20    21   ar
     4    21    22   ar
     5    22    23   ar
     6    23     1    1
     7     1     2    1
     8     2     3    1
     9     3     4   ar
    10     4     5   ar
    11     5     6   ar
    12     6     7    1
    13     6     8   ar
    14     8    28    1
    15    28    29    1
    16     8     9   ar
    17     9    12    1
    18    12    13   ar
    19    13    14   ar
    20    14    15   ar
    21    15    16    1
    22    15    17   ar
    23    17    18   ar
    24    18    19    1
    25     4    10    1
    26    10    11    2
    27    23    24   ar
    28    24    25   ar
    29    25    20   ar
    30    10     1   am
    31     9     3   ar
    32    18    12   ar
    33    29    30    1
    34    29    31    1
@<TRIPOS>MOLECULE
*****
 31 34 0 0 0
SMALL
GASTEIGER

@<TRIPOS>ATOM
      1 N          61.6099   87.2772   10.4223 N.am    1  UNL1       -0.2496
      2 C          61.9808   85.8338   10.5927 C.3     1  UNL1        0.1267
      3 C          62.8095   85.7120   11.8371 C.ar    1  UNL1        0.0200
      4 C          62.9508   87.0802   12.4356 C.ar    1  UNL1        0.1322
      5 N          63.7364   87.2683   13.6996 N.ar    1  UNL1       -0.2456
      6 C          64.3806   86.0884   14.3649 C.ar    1  UNL1        0.0568
      7 C          65.1661   86.2767   15.6289 C.3     1  UNL1        0.0518
      8 C          64.2393   84.7204   13.7664 C.ar    1  UNL1        0.0068
      9 C          63.4537   84.5321   12.5024 C.ar    1  UNL1       -0.0015
     10 C          62.2094   88.0475   11.5612 C.2     1  UNL1        0.2705
     11 O          62.0887   89.5256   11.7863 O.2     1  UNL1       -0.2679
     12 C          63.3125   83.1639   11.9039 C.ar    1  UNL1        0.0102
     13 C          64.0060   82.8336   10.6155 C.ar    1  UNL1        0.0017
     14 C          63.8647   81.4654   10.0171 C.ar    1  UNL1        0.0114
     15 C          63.0299   80.4276   10.7070 C.ar    1  UNL1        0.0585
     16 CL         62.8886   79.0595   10.1086 Cl      1  UNL1       -0.0822
     17 C          62.3363   80.7579   11.9954 C.ar    1  UNL1        0.0228
     18 C          62.4777   82.1261   12.5938 C.ar    1  UNL1        0.0585
     19 CL         61.7841   82.4565   13.8821 Cl      1  UNL1       -0.0822
     20 C          59.1334   88.9949    7.0806 C.ar    1  UNL1        0.1388
     21 C          59.0849   87.5240    7.3704 C.ar    1  UNL1        0.0382
     22 C          59.9104   86.9515    8.4843 C.ar    1  UNL1        0.0180
     23 C          60.7844   87.8498    9.3084 C.ar    1  UNL1        0.0547
     24 C          60.8330   89.3207    9.0186 C.ar    1  UNL1        0.0180
     25 C          60.0074   89.8932    7.9047 C.ar    1  UNL1        0.0382
     26 C          58.6037   90.9421    5.4443 C.3     1  UNL1        0.2525
     27 O          58.3079   89.5675    5.9667 O.3     1  UNL1       -0.4714
     28 C          64.8836   83.5403   14.4318 C.3     1  UNL1        0.0934
     29 N          64.3059   82.9870   15.7007 N.3     1  UNL1       -0.3174
     30 H          64.4008   83.6764   16.4464 H       1  UNL1        0.1192
     31 H          64.8052   82.1359   15.9588 H       1  UNL1        0.1192
@<TRIPOS>BOND
     1    26    27    1
     2    27    20    1
     3    20    21   ar
     4    21    22   ar
     5    22    23   ar
     6    23     1    1
     7     1     2    1
     8     2     3    1
     9     3     4   ar
    10     4     5   ar
    11     5     6   ar
    12     6     7    1
    13     6     8   ar
    14     8    28    1
    15    28    29    1
    16     8     9   ar
    17     9    12    1
    18    12    13   ar
    19    13    14   ar
    20    14    15   ar
    21    15    16    1
    22    15    17   ar
    23    17    18   ar
    24    18    19    1
    25     4    10    1
    26    10    11    2
    27    23    24   ar
    28    24    25   ar
    29    25    20   ar
    30    10     1   am
    31     9     3   ar
    32    18    12   ar
    33    29    30    1
    34    29    31    1
@<TRIPOS>MOLECULE
*****
 31 34 0 0 0
SMALL
GASTEIGER

@<TRIPOS>ATOM
      1 N          62.9256   90.0527   12.1241 N.am    1  UNL1       -0.2496
      2 C          64.0703   90.8563   11.5819 C.3     1  UNL1        0.1267
      3 C          64.8228   91.4335   12.7440 C.ar    1  UNL1        0.0200
      4 C          64.1433   90.9867   14.0044 C.ar    1  UNL1        0.1322
      5 N          64.6801   91.4146   15.3381 N.ar    1  UNL1       -0.2456
      6 C          65.8964   92.2894   15.4114 C.ar    1  UNL1        0.0568
      7 C          66.4331   92.7173   16.7452 C.3     1  UNL1        0.0518
      8 C          66.5759   92.7362   14.1511 C.ar    1  UNL1        0.0068
      9 C          66.0391   92.3082   12.8173 C.ar    1  UNL1       -0.0015
     10 C          62.9707   90.1333   13.6213 C.2     1  UNL1        0.2705
     11 O          62.0116   89.4759   14.5689 O.2     1  UNL1       -0.2679
     12 C          66.7188   92.7551   11.5569 C.ar    1  UNL1        0.0102
     13 C          67.6382   91.8202   10.8287 C.ar    1  UNL1        0.0017
     14 C          68.3178   92.2672    9.5683 C.ar    1  UNL1        0.0114
     15 C          68.0779   93.6490    9.0363 C.ar    1  UNL1        0.0585
     16 CL         68.7574   94.0959    7.7760 Cl      1  UNL1       -0.0822
     17 C          67.1584   94.5839    9.7646 C.ar    1  UNL1        0.0228
     18 C          66.4788   94.1369   11.0250 C.ar    1  UNL1        0.0585
     19 CL         65.5593   95.0718   11.7533 Cl      1  UNL1       -0.0822
     20 C          59.8892   87.7962    9.6872 C.ar    1  UNL1        0.1388
     21 C          60.9330   87.0492   10.4632 C.ar    1  UNL1        0.0382
     22 C          61.9452   87.8014   11.2755 C.ar    1  UNL1        0.0180
     23 C          61.9134   89.3006   11.3118 C.ar    1  UNL1        0.0547
     24 C          60.8696   90.0477   10.5358 C.ar    1  UNL1        0.0180
     25 C          59.8575   89.2954    9.7235 C.ar    1  UNL1        0.0382
     26 C          59.1047   86.8259    7.4084 C.3     1  UNL1        0.2525
     27 O          58.8770   87.0441    8.8748 O.3     1  UNL1       -0.4714
     28 C          67.7923   93.6110   14.2244 C.3     1  UNL1        0.0934
     29 N          69.1194   93.0204   14.5984 N.3     1  UNL1       -0.3174
     30 H          69.0860   92.6932   15.5639 H       1  UNL1        0.1192
     31 H          69.8459   93.7302   14.5048 H       1  UNL1        0.1192
@<TRIPOS>BOND
     1    26    27    1
     2    27    20    1
     3    20    21   ar
     4    21    22   ar
     5    22    23   ar
     6    23     1    1
     7     1     2    1
     8     2     3    1
     9     3     4   ar
    10     4     5   ar
    11     5     6   ar
    12     6     7    1
    13     6     8   ar
    14     8    28    1
    15    28    29    1
    16     8     9   ar
    17     9    12    1
    18    12    13   ar
    19    13    14   ar
    20    14    15   ar
    21    15    16    1
    22    15    17   ar
    23    17    18   ar
    24    18    19    1
    25     4    10    1
    26    10    11    2
    27    23    24   ar
    28    24    25   ar
    29    25    20   ar
    30    10     1   am
    31     9     3   ar
    32    18    12   ar
    33    29    30    1
    34    29    31    1
@<TRIPOS>MOLECULE
*****
 31 34 0 0 0
SMALL
GASTEIGER

@<TRIPOS>ATOM
      1 N          63.1756   84.4031   12.7308 N.am    1  UNL1       -0.2496
      2 C          62.5703   85.4948   11.8992 C.3     1  UNL1        0.1267
      3 C          62.9982   86.8104   12.4790 C.ar    1  UNL1        0.0200
      4 C          63.8678   86.5317   13.6689 C.ar    1  UNL1        0.1322
      5 N          64.4476   87.6688   14.4570 N.ar    1  UNL1       -0.2456
      6 C          64.1576   89.0845   14.0551 C.ar    1  UNL1        0.0568
      7 C          64.7373   90.2216   14.8432 C.3     1  UNL1        0.0518
      8 C          63.2880   89.3632   12.8652 C.ar    1  UNL1        0.0068
      9 C          62.7082   88.2262   12.0771 C.ar    1  UNL1       -0.0015
     10 C          63.9775   85.0439   13.8246 C.2     1  UNL1        0.2705
     11 O          64.7529   84.3233   14.8874 O.2     1  UNL1       -0.2679
     12 C          61.8385   88.5050   10.8871 C.ar    1  UNL1        0.0102
     13 C          62.2546   88.0303    9.5264 C.ar    1  UNL1        0.0017
     14 C          61.3848   88.3091    8.3365 C.ar    1  UNL1        0.0114
     15 C          60.0991   89.0626    8.5074 C.ar    1  UNL1        0.0585
     16 CL         59.2294   89.3415    7.3175 Cl      1  UNL1       -0.0822
     17 C          59.6831   89.5374    9.8680 C.ar    1  UNL1        0.0228
     18 C          60.5528   89.2585   11.0579 C.ar    1  UNL1        0.0585
     19 CL         60.1369   89.7332   12.4187 Cl      1  UNL1       -0.0822
     20 C          62.6738   79.9814   12.0619 C.ar    1  UNL1        0.1388
     21 C          63.1363   80.8620   10.9392 C.ar    1  UNL1        0.0382
     22 C          63.3036   82.3359   11.1622 C.ar    1  UNL1        0.0180
     23 C          63.0083   82.9292   12.5079 C.ar    1  UNL1        0.0547
     24 C          62.5457   82.0485   13.6306 C.ar    1  UNL1        0.0180
     25 C          62.3785   80.5746   13.4075 C.ar    1  UNL1        0.0382
     26 C          62.7128   77.9278   10.4710 C.3     1  UNL1        0.2525
     27 O          62.5065   78.5075   11.8389 O.3     1  UNL1       -0.4714
     28 C          62.9980   90.7791   12.4633 C.3     1  UNL1        0.0934
     29 N          63.8161   91.4372   11.3920 N.3     1  UNL1       -0.3174
     30 H          64.7771   91.5452   11.7162 H       1  UNL1        0.1192
     31 H          63.4237   92.3544   11.1798 H       1  UNL1        0.1192
@<TRIPOS>BOND
     1    26    27    1
     2    27    20    1
     3    20    21   ar
     4    21    22   ar
     5    22    23   ar
     6    23     1    1
     7     1     2    1
     8     2     3    1
     9     3     4   ar
    10     4     5   ar
    11     5     6   ar
    12     6     7    1
    13     6     8   ar
    14     8    28    1
    15    28    29    1
    16     8     9   ar
    17     9    12    1
    18    12    13   ar
    19    13    14   ar
    20    14    15   ar
    21    15    16    1
    22    15    17   ar
    23    17    18   ar
    24    18    19    1
    25     4    10    1
    26    10    11    2
    27    23    24   ar
    28    24    25   ar
    29    25    20   ar
    30    10     1   am
    31     9     3   ar
    32    18    12   ar
    33    29    30    1
    34    29    31    1
@<TRIPOS>MOLECULE
*****
 31 34 0 0 0
SMALL
GASTEIGER

@<TRIPOS>ATOM
      1 N          60.0612   93.6254   -2.9047 N.am    1  UNL1       -0.2496
      2 C          60.3484   93.3184   -1.4648 C.3     1  UNL1        0.1267
      3 C          61.6339   93.9965   -1.0938 C.ar    1  UNL1        0.0200
      4 C          62.1412   94.7226   -2.3043 C.ar    1  UNL1        0.1322
      5 N          63.4226   95.4988   -2.2311 N.ar    1  UNL1       -0.2456
      6 C          64.1968   95.5489   -0.9473 C.ar    1  UNL1        0.0568
      7 C          65.4783   96.3252   -0.8741 C.3     1  UNL1        0.0518
      8 C          63.6896   94.8228    0.2632 C.ar    1  UNL1        0.0068
      9 C          62.4081   94.0465    0.1900 C.ar    1  UNL1       -0.0015
     10 C          61.1692   94.4933   -3.4236 C.2     1  UNL1        0.2705
     11 O          61.2848   95.0365   -4.8170 O.2     1  UNL1       -0.2679
     12 C          61.9009   93.3204    1.4006 C.ar    1  UNL1        0.0102
     13 C          62.6221   92.1049    1.9029 C.ar    1  UNL1        0.0017
     14 C          62.1148   91.3788    3.1135 C.ar    1  UNL1        0.0114
     15 C          60.8864   91.8683    3.8217 C.ar    1  UNL1        0.0585
     16 CL         60.3791   91.1422    5.0323 Cl      1  UNL1       -0.0822
     17 C          60.1653   93.0838    3.3193 C.ar    1  UNL1        0.0228
     18 C          60.6725   93.8099    2.1087 C.ar    1  UNL1        0.0585
     19 CL         59.9514   95.0254    1.6063 Cl      1  UNL1       -0.0822
     20 C          56.5007   92.1944   -5.2553 C.ar    1  UNL1        0.1388
     21 C          57.3756   93.2811   -5.8063 C.ar    1  UNL1        0.0382
     22 C          58.5624   93.7581   -5.0227 C.ar    1  UNL1        0.0180
     23 C          58.8744   93.1484   -3.6882 C.ar    1  UNL1        0.0547
     24 C          57.9996   92.0616   -3.1372 C.ar    1  UNL1        0.0180
     25 C          56.8127   91.5846   -3.9208 C.ar    1  UNL1        0.0382
     26 C          55.4748   91.3200   -7.4762 C.3     1  UNL1        0.2525
     27 O          55.3139   91.7173   -6.0388 O.3     1  UNL1       -0.4714
     28 C          64.4638   94.8729    1.5470 C.3     1  UNL1        0.0934
     29 N          65.5108   93.8373    1.8323 N.3     1  UNL1       -0.3174
     30 H          65.0671   92.9248    1.9361 H       1  UNL1        0.1192
     31 H          66.0004   94.0773    2.6944 H       1  UNL1        0.1192
@<TRIPOS>BOND
     1    26    27    1
     2    27    20    1
     3    20    21   ar
     4    21    22   ar
     5    22    23   ar
     6    23     1    1
     7     1     2    1
     8     2     3    1
     9     3     4   ar
    10     4     5   ar
    11     5     6   ar
    12     6     7    1
    13     6     8   ar
    14     8    28    1
    15    28    29    1
    16     8     9   ar
    17     9    12    1
    18    12    13   ar
    19    13    14   ar
    20    14    15   ar
    21    15    16    1
    22    15    17   ar
    23    17    18   ar
    24    18    19    1
    25     4    10    1
    26    10    11    2
    27    23    24   ar
    28    24    25   ar
    29    25    20   ar
    30    10     1   am
    31     9     3   ar
    32    18    12   ar
    33    29    30    1
    34    29    31    1
@<TRIPOS>MOLECULE
*****
 31 34 0 0 0
SMALL
GASTEIGER

@<TRIPOS>ATOM
      1 N          64.5672   90.6004   12.5943 N.am    1  UNL1       -0.2496
      2 C          63.7194   89.6457   11.8070 C.3     1  UNL1        0.1267
      3 C          63.5434   88.4001   12.6240 C.ar    1  UNL1        0.0200
      4 C          64.2824   88.5849   13.9162 C.ar    1  UNL1        0.1322
      5 N          64.2836   87.4911   14.9426 N.ar    1  UNL1       -0.2456
      6 C          63.5458   86.2124   14.6768 C.ar    1  UNL1        0.0568
      7 C          63.5471   85.1186   15.7033 C.3     1  UNL1        0.0518
      8 C          62.8069   86.0275   13.3847 C.ar    1  UNL1        0.0068
      9 C          62.8057   87.1214   12.3582 C.ar    1  UNL1       -0.0015
     10 C          64.9151   89.9448   13.8979 C.2     1  UNL1        0.2705
     11 O          65.7493   90.5440   14.9911 O.2     1  UNL1       -0.2679
     12 C          62.0667   86.9364   11.0660 C.ar    1  UNL1        0.0102
     13 C          62.6453   86.0677    9.9888 C.ar    1  UNL1        0.0017
     14 C          61.9063   85.8828    8.6967 C.ar    1  UNL1        0.0114
     15 C          60.5886   86.5666    8.4818 C.ar    1  UNL1        0.0585
     16 CL         59.8495   86.3817    7.1897 Cl      1  UNL1       -0.0822
     17 C          60.0099   87.4353    9.5591 C.ar    1  UNL1        0.0228
     18 C          60.7490   87.6202   10.8512 C.ar    1  UNL1        0.0585
     19 CL         60.1704   88.4889   11.9285 Cl      1  UNL1       -0.0822
     20 C          65.8429   94.7098   11.2769 C.ar    1  UNL1        0.1388
     21 C          66.1626   94.2336   12.6630 C.ar    1  UNL1        0.0382
     22 C          65.7373   92.8638   13.1020 C.ar    1  UNL1        0.0180
     23 C          64.9924   91.9702   12.1552 C.ar    1  UNL1        0.0547
     24 C          64.6728   92.4463   10.7691 C.ar    1  UNL1        0.0180
     25 C          65.0981   93.8162   10.3301 C.ar    1  UNL1        0.0382
     26 C          67.0821   96.2478    9.5891 C.3     1  UNL1        0.2525
     27 O          66.2682   96.0796   10.8378 O.3     1  UNL1       -0.4714
     28 C          62.0691   84.7488   13.1190 C.3     1  UNL1        0.0934
     29 N          62.8073   83.5513   12.5981 N.3     1  UNL1       -0.3174
     30 H          63.1532   83.7473   11.6587 H       1  UNL1        0.1192
     31 H          62.1770   82.7499   12.5681 H       1  UNL1        0.1192
@<TRIPOS>BOND
     1    26    27    1
     2    27    20    1
     3    20    21   ar
     4    21    22   ar
     5    22    23   ar
     6    23     1    1
     7     1     2    1
     8     2     3    1
     9     3     4   ar
    10     4     5   ar
    11     5     6   ar
    12     6     7    1
    13     6     8   ar
    14     8    28    1
    15    28    29    1
    16     8     9   ar
    17     9    12    1
    18    12    13   ar
    19    13    14   ar
    20    14    15   ar
    21    15    16    1
    22    15    17   ar
    23    17    18   ar
    24    18    19    1
    25     4    10    1
    26    10    11    2
    27    23    24   ar
    28    24    25   ar
    29    25    20   ar
    30    10     1   am
    31     9     3   ar
    32    18    12   ar
    33    29    30    1
    34    29    31    1
