@<TRIPOS>MOLECULE
*****
 40 43 0 0 0
SMALL
GASTEIGER

@<TRIPOS>ATOM
      1 C          63.1793   86.0125   13.0870 C.3     1  UNL1        0.1554
      2 N          63.6323   88.5481   13.4276 N.am    1  UNL1       -0.2966
      3 C          63.8839   87.1203   13.8126 C.2     1  UNL1        0.2411
      4 O          64.8401   86.8003   14.9231 O.2     1  UNL1       -0.2733
      5 H          63.0047   88.7581   12.6988 H       1  UNL1        0.1499
      6 C          64.3368   89.6558   14.1531 C.3     1  UNL1        0.1543
      7 N          65.4748   92.0695   13.9975 N.ar    1  UNL1       -0.3009
      8 C          64.7665   90.8854   13.4091 C.ar    1  UNL1        0.1415
      9 N          64.5633   91.1468   11.9461 N.ar    1  UNL1       -0.2276
     10 C          65.1461   92.4924   11.6303 C.ar    1  UNL1        0.1167
     11 C          65.2365   93.2720   10.3521 C.ar    1  UNL1        0.0238
     12 C          65.8903   94.6220   10.3417 C.ar    1  UNL1        0.0223
     13 C          66.4537   95.1923   11.6095 C.ar    1  UNL1        0.1006
     14 N          66.3632   94.4126   12.8877 N.ar    1  UNL1       -0.2252
     15 C          65.7094   93.0627   12.8981 C.ar    1  UNL1        0.1624
     16 C          64.8578   92.0725   16.5212 C.3     1  UNL1        0.0246
     17 C          65.8778   92.2320   15.4332 C.3     1  UNL1        0.0880
     18 C          67.3011   92.5539   15.7809 C.3     1  UNL1        0.0208
     19 C          68.6064   92.1605   16.4066 C.3     1  UNL1        0.0019
     20 C          68.4609   93.5048   15.7573 C.3     1  UNL1        0.0019
     21 N          63.4720   84.5831   13.4347 N.am    1  UNL1       -0.2637
     22 C          62.7095   83.9078   14.5360 C.2     1  UNL1        0.4017
     23 O          61.6543   84.6621   15.2895 O.2     1  UNL1       -0.2264
     24 H          64.1645   84.0880   12.9401 H       1  UNL1        0.1532
     25 O          63.0021   82.4784   14.8837 O.3     1  UNL1       -0.4419
     26 C          62.7858   81.3993   13.8646 C.3     1  UNL1        0.1378
     27 C          64.2325   81.4766   13.4757 C.3     1  UNL1        0.0437
     28 C          61.3392   81.3219   14.2534 C.3     1  UNL1        0.0437
     29 C          62.5696   80.3201   12.8454 C.3     1  UNL1        0.0437
     30 C          62.1821   86.3343   12.0137 C.3     1  UNL1        0.0553
     31 C          62.4023   85.8430   10.6136 C.ar    1  UNL1       -0.0161
     32 C          63.1927   84.5909   10.3738 C.ar    1  UNL1       -0.0042
     33 C          63.4128   84.0996    8.9738 C.ar    1  UNL1       -0.0003
     34 C          62.8426   84.8604    7.8136 C.ar    1  UNL1       -0.0001
     35 C          62.0522   86.1124    8.0534 C.ar    1  UNL1        0.0035
     36 C          61.8320   86.6037    9.4534 C.ar    1  UNL1        0.0675
     37 C          61.0416   87.8558    9.6933 C.3     1  UNL1        0.4183
     38 F          60.2512   89.1079    9.9331 F       1  UNL1       -0.1659
     39 F          62.3124   88.6521    9.7239 F       1  UNL1       -0.1659
     40 F          59.7708   87.0595    9.6627 F       1  UNL1       -0.1659
@<TRIPOS>BOND
     1    16    17    1
     2    17    18    1
     3    18    19    1
     4    19    20    1
     5    17     7    1
     6     7     8   ar
     7     8     6    1
     8     6     2    1
     9     2     3   am
    10     3     4    2
    11     3     1    1
    12     1    30    1
    13    30    31    1
    14    31    32   ar
    15    32    33   ar
    16    33    34   ar
    17    34    35   ar
    18    35    36   ar
    19    36    37    1
    20    37    38    1
    21    37    39    1
    22    37    40    1
    23     1    21    1
    24    21    22   am
    25    22    23    2
    26    22    25    1
    27    25    26    1
    28    26    27    1
    29    26    28    1
    30    26    29    1
    31     8     9   ar
    32     9    10   ar
    33    10    11   ar
    34    11    12   ar
    35    12    13   ar
    36    13    14   ar
    37    14    15   ar
    38    20    18    1
    39    15     7   ar
    40    36    31   ar
    41    15    10   ar
    42     2     5    1
    43    21    24    1
@<TRIPOS>MOLECULE
*****
 40 43 0 0 0
SMALL
GASTEIGER

@<TRIPOS>ATOM
      1 C          63.1770   85.9029   12.7912 C.3     1  UNL1        0.1554
      2 N          63.4815   88.4643   13.1018 N.am    1  UNL1       -0.2966
      3 C          63.7061   87.0616   13.5835 C.2     1  UNL1        0.2411
      4 O          64.4595   86.8176   14.8573 O.2     1  UNL1       -0.2733
      5 H          62.9870   88.6244   12.2658 H       1  UNL1        0.1499
      6 C          64.0105   89.6230   13.8940 C.3     1  UNL1        0.1543
      7 N          65.3004   91.9630   13.8180 N.ar    1  UNL1       -0.3009
      8 C          64.5350   90.8376   13.1872 C.ar    1  UNL1        0.1415
      9 N          64.3863   91.1403   11.7256 N.ar    1  UNL1       -0.2276
     10 C          65.0597   92.4526   11.4531 C.ar    1  UNL1        0.1167
     11 C          65.2315   93.2502   10.1944 C.ar    1  UNL1        0.0238
     12 C          65.9682   94.5564   10.2290 C.ar    1  UNL1        0.0223
     13 C          66.5332   95.0648   11.5221 C.ar    1  UNL1        0.1006
     14 N          66.3614   94.2672   12.7808 N.ar    1  UNL1       -0.2252
     15 C          65.6247   92.9611   12.7462 C.ar    1  UNL1        0.1624
     16 C          64.6549   91.7894   16.3286 C.3     1  UNL1        0.0246
     17 C          65.6756   92.0712   15.2663 C.3     1  UNL1        0.0880
     18 C          67.0717   92.4614   15.6522 C.3     1  UNL1        0.0208
     19 C          68.1493   93.4999   15.7536 C.3     1  UNL1        0.0019
     20 C          68.4121   92.0985   16.2193 C.3     1  UNL1        0.0019
     21 N          61.8155   85.9806   12.1666 N.am    1  UNL1       -0.2637
     22 C          61.6155   86.7558   10.8980 C.2     1  UNL1        0.4017
     23 O          62.7770   87.4531   10.2542 O.2     1  UNL1       -0.2264
     24 H          61.0532   85.5229   12.5892 H       1  UNL1        0.1532
     25 O          60.2540   86.8335   10.2733 O.3     1  UNL1       -0.4419
     26 C          60.0209   87.7279    9.0920 C.3     1  UNL1        0.1378
     27 C          60.0458   86.5346    8.1836 C.3     1  UNL1        0.0437
     28 C          59.9960   88.9213   10.0004 C.3     1  UNL1        0.0437
     29 C          59.7877   88.6224    7.9106 C.3     1  UNL1        0.0437
     30 C          64.0096   84.6664   12.6237 C.3     1  UNL1        0.0553
     31 C          63.3822   83.3129   12.7804 C.ar    1  UNL1       -0.0161
     32 C          63.3183   82.3759   11.6108 C.ar    1  UNL1       -0.0042
     33 C          62.6909   81.0225   11.7676 C.ar    1  UNL1       -0.0003
     34 C          62.1276   80.6060   13.0939 C.ar    1  UNL1       -0.0001
     35 C          62.1915   81.5430   14.2635 C.ar    1  UNL1        0.0035
     36 C          62.8189   82.8964   14.1068 C.ar    1  UNL1        0.0675
     37 C          62.8829   83.8335   15.2764 C.3     1  UNL1        0.4183
     38 F          62.9468   84.7705   16.4459 F       1  UNL1       -0.1659
     39 F          61.4826   84.2878   14.9889 F       1  UNL1       -0.1659
     40 F          64.2831   83.3791   15.5639 F       1  UNL1       -0.1659
@<TRIPOS>BOND
     1    16    17    1
     2    17    18    1
     3    18    19    1
     4    19    20    1
     5    17     7    1
     6     7     8   ar
     7     8     6    1
     8     6     2    1
     9     2     3   am
    10     3     4    2
    11     3     1    1
    12     1    30    1
    13    30    31    1
    14    31    32   ar
    15    32    33   ar
    16    33    34   ar
    17    34    35   ar
    18    35    36   ar
    19    36    37    1
    20    37    38    1
    21    37    39    1
    22    37    40    1
    23     1    21    1
    24    21    22   am
    25    22    23    2
    26    22    25    1
    27    25    26    1
    28    26    27    1
    29    26    28    1
    30    26    29    1
    31     8     9   ar
    32     9    10   ar
    33    10    11   ar
    34    11    12   ar
    35    12    13   ar
    36    13    14   ar
    37    14    15   ar
    38    20    18    1
    39    15     7   ar
    40    36    31   ar
    41    15    10   ar
    42     2     5    1
    43    21    24    1
@<TRIPOS>MOLECULE
*****
 40 43 0 0 0
SMALL
GASTEIGER

@<TRIPOS>ATOM
      1 C          63.1112   86.0018   13.0060 C.3     1  UNL1        0.1554
      2 N          63.6119   88.5465   13.1603 N.am    1  UNL1       -0.2966
      3 C          63.6075   87.1832   13.7859 C.2     1  UNL1        0.2411
      4 O          64.0994   87.0013   15.1912 O.2     1  UNL1       -0.2733
      5 H          63.2890   88.6659   12.2380 H       1  UNL1        0.1499
      6 C          64.1081   89.7279   13.9401 C.3     1  UNL1        0.1543
      7 N          65.3830   92.0751   13.8365 N.ar    1  UNL1       -0.3009
      8 C          64.6193   90.9406   13.2202 C.ar    1  UNL1        0.1415
      9 N          64.4566   91.2317   11.7578 N.ar    1  UNL1       -0.2276
     10 C          65.1197   92.5460   11.4702 C.ar    1  UNL1        0.1167
     11 C          65.2762   93.3356   10.2044 C.ar    1  UNL1        0.0238
     12 C          66.0051   94.6464   10.2234 C.ar    1  UNL1        0.0223
     13 C          66.5776   95.1676   11.5082 C.ar    1  UNL1        0.1006
     14 N          66.4212   94.3781   12.7739 N.ar    1  UNL1       -0.2252
     15 C          65.6922   93.0673   12.7549 C.ar    1  UNL1        0.1624
     16 C          64.7451   91.9700   16.3528 C.3     1  UNL1        0.0246
     17 C          65.7695   92.1961   15.2808 C.3     1  UNL1        0.0880
     18 C          67.1806   92.5433   15.6530 C.3     1  UNL1        0.0208
     19 C          68.2757   93.5593   15.7891 C.3     1  UNL1        0.0019
     20 C          68.5294   92.1286   16.1615 C.3     1  UNL1        0.0019
     21 N          61.7867   86.0685   12.3052 N.am    1  UNL1       -0.2637
     22 C          61.6785   86.7404   10.9684 C.2     1  UNL1        0.4017
     23 O          62.8949   87.3456   10.3325 O.2     1  UNL1       -0.2264
     24 H          60.9884   85.6714   12.7225 H       1  UNL1        0.1532
     25 O          60.3541   86.8072   10.2675 O.3     1  UNL1       -0.4419
     26 C          60.1171   87.8431    9.2089 C.3     1  UNL1        0.1378
     27 C          60.1201   86.7713    8.1595 C.3     1  UNL1        0.0437
     28 C          60.1142   88.9148   10.2583 C.3     1  UNL1        0.0437
     29 C          59.8802   88.8790    8.1502 C.3     1  UNL1        0.0437
     30 C          63.9395   84.7537   12.9271 C.3     1  UNL1        0.0553
     31 C          63.2847   83.4099   13.0527 C.ar    1  UNL1       -0.0161
     32 C          62.6887   82.9855   14.3621 C.ar    1  UNL1       -0.0042
     33 C          62.0341   81.6417   14.4876 C.ar    1  UNL1       -0.0003
     34 C          61.9754   80.7225   13.3038 C.ar    1  UNL1       -0.0001
     35 C          62.5715   81.1469   11.9944 C.ar    1  UNL1        0.0035
     36 C          63.2261   82.4907   11.8689 C.ar    1  UNL1        0.0675
     37 C          63.8222   82.9152   10.5594 C.3     1  UNL1        0.4183
     38 F          64.4182   83.3397    9.2500 F       1  UNL1       -0.1659
     39 F          62.5797   83.6952   10.2468 F       1  UNL1       -0.1659
     40 F          65.0647   82.1352   10.8721 F       1  UNL1       -0.1659
@<TRIPOS>BOND
     1    16    17    1
     2    17    18    1
     3    18    19    1
     4    19    20    1
     5    17     7    1
     6     7     8   ar
     7     8     6    1
     8     6     2    1
     9     2     3   am
    10     3     4    2
    11     3     1    1
    12     1    30    1
    13    30    31    1
    14    31    32   ar
    15    32    33   ar
    16    33    34   ar
    17    34    35   ar
    18    35    36   ar
    19    36    37    1
    20    37    38    1
    21    37    39    1
    22    37    40    1
    23     1    21    1
    24    21    22   am
    25    22    23    2
    26    22    25    1
    27    25    26    1
    28    26    27    1
    29    26    28    1
    30    26    29    1
    31     8     9   ar
    32     9    10   ar
    33    10    11   ar
    34    11    12   ar
    35    12    13   ar
    36    13    14   ar
    37    14    15   ar
    38    20    18    1
    39    15     7   ar
    40    36    31   ar
    41    15    10   ar
    42     2     5    1
    43    21    24    1
@<TRIPOS>MOLECULE
*****
 40 43 0 0 0
SMALL
GASTEIGER

@<TRIPOS>ATOM
      1 C          62.4136   87.3532   11.6172 C.3     1  UNL1        0.1554
      2 N          63.9846   88.6889   13.1977 N.am    1  UNL1       -0.2966
      3 C          62.7069   88.5869   12.4185 C.2     1  UNL1        0.2411
      4 O          61.7225   89.7184   12.4406 O.2     1  UNL1       -0.2733
      5 H          64.6307   87.9462   13.1831 H       1  UNL1        0.1499
      6 C          64.2779   89.9225   13.9990 C.3     1  UNL1        0.1543
      7 N          65.4988   92.3000   13.9529 N.ar    1  UNL1       -0.3009
      8 C          64.7517   91.1685   13.3113 C.ar    1  UNL1        0.1415
      9 N          64.5617   91.5019   11.8612 N.ar    1  UNL1       -0.2276
     10 C          65.1913   92.8394   11.6066 C.ar    1  UNL1        0.1167
     11 C          65.3121   93.6718   10.3646 C.ar    1  UNL1        0.0238
     12 C          66.0120   94.9974   10.4155 C.ar    1  UNL1        0.0223
     13 C          66.5912   95.4907   11.7082 C.ar    1  UNL1        0.1006
     14 N          66.4705   94.6582   12.9501 N.ar    1  UNL1       -0.2252
     15 C          65.7705   93.3326   12.8993 C.ar    1  UNL1        0.1624
     16 C          64.8854   92.1606   16.4736 C.3     1  UNL1        0.0246
     17 C          65.9033   92.3841   15.3949 C.3     1  UNL1        0.0880
     18 C          67.3259   92.6917   15.7581 C.3     1  UNL1        0.0208
     19 C          68.3866   93.6864   16.1261 C.3     1  UNL1        0.0019
     20 C          68.7289   92.2299   16.0193 C.3     1  UNL1        0.0019
     21 N          61.8800   86.1269   12.2965 N.am    1  UNL1       -0.2637
     22 C          62.7856   85.2866   13.1472 C.2     1  UNL1        0.4017
     23 O          64.2249   85.6726   13.3187 O.2     1  UNL1       -0.2264
     24 H          60.9353   85.8735   12.1839 H       1  UNL1        0.1532
     25 O          62.2520   84.0603   13.8265 O.3     1  UNL1       -0.4419
     26 C          63.0256   82.7764   13.7724 C.3     1  UNL1        0.1378
     27 C          62.5344   82.5393   12.3752 C.3     1  UNL1        0.0437
     28 C          63.5167   83.0135   15.1697 C.3     1  UNL1        0.0437
     29 C          63.7992   81.4923   13.7183 C.3     1  UNL1        0.0437
     30 C          62.6540   87.3458   10.1366 C.3     1  UNL1        0.0553
     31 C          61.5134   87.1045    9.1927 C.ar    1  UNL1       -0.0161
     32 C          60.4014   88.1058    9.0886 C.ar    1  UNL1       -0.0042
     33 C          59.2609   87.8645    8.1448 C.ar    1  UNL1       -0.0003
     34 C          59.2323   86.6219    7.3051 C.ar    1  UNL1       -0.0001
     35 C          60.3442   85.6206    7.4093 C.ar    1  UNL1        0.0035
     36 C          61.4848   85.8619    8.3531 C.ar    1  UNL1        0.0675
     37 C          62.5968   84.8605    8.4572 C.3     1  UNL1        0.4183
     38 F          63.7088   83.8592    8.5615 F       1  UNL1       -0.1659
     39 F          62.2184   84.5887    9.8830 F       1  UNL1       -0.1659
     40 F          62.9752   85.1324    7.0315 F       1  UNL1       -0.1659
@<TRIPOS>BOND
     1    16    17    1
     2    17    18    1
     3    18    19    1
     4    19    20    1
     5    17     7    1
     6     7     8   ar
     7     8     6    1
     8     6     2    1
     9     2     3   am
    10     3     4    2
    11     3     1    1
    12     1    30    1
    13    30    31    1
    14    31    32   ar
    15    32    33   ar
    16    33    34   ar
    17    34    35   ar
    18    35    36   ar
    19    36    37    1
    20    37    38    1
    21    37    39    1
    22    37    40    1
    23     1    21    1
    24    21    22   am
    25    22    23    2
    26    22    25    1
    27    25    26    1
    28    26    27    1
    29    26    28    1
    30    26    29    1
    31     8     9   ar
    32     9    10   ar
    33    10    11   ar
    34    11    12   ar
    35    12    13   ar
    36    13    14   ar
    37    14    15   ar
    38    20    18    1
    39    15     7   ar
    40    36    31   ar
    41    15    10   ar
    42     2     5    1
    43    21    24    1
@<TRIPOS>MOLECULE
*****
 40 43 0 0 0
SMALL
GASTEIGER

@<TRIPOS>ATOM
      1 C          62.7055   87.6249   11.9435 C.3     1  UNL1        0.1554
      2 N          63.4844   89.9839   11.1828 N.am    1  UNL1       -0.2966
      3 C          62.8957   89.0851   12.2295 C.2     1  UNL1        0.2411
      4 O          62.4972   89.6464   13.5622 O.2     1  UNL1       -0.2733
      5 H          63.7459   89.6155   10.3081 H       1  UNL1        0.1499
      6 C          63.6746   91.4441   11.4688 C.3     1  UNL1        0.1543
      7 N          65.8119   92.8036   12.3224 N.ar    1  UNL1       -0.3009
      8 C          64.6464   91.8812   12.5244 C.ar    1  UNL1        0.1415
      9 N          64.6235   91.4727   13.9675 N.ar    1  UNL1       -0.2276
     10 C          65.7747   92.1426   14.6574 C.ar    1  UNL1        0.1167
     11 C          66.2491   92.1098   16.0800 C.ar    1  UNL1        0.0238
     12 C          67.4580   92.8997   16.4858 C.ar    1  UNL1        0.0223
     13 C          68.1925   93.7223   15.4690 C.ar    1  UNL1        0.1006
     14 N          67.7181   93.7550   14.0464 N.ar    1  UNL1       -0.2252
     15 C          66.5092   92.9652   13.6406 C.ar    1  UNL1        0.1624
     16 C          65.5058   94.6903   10.5626 C.3     1  UNL1        0.0246
     17 C          66.2101   93.4509   11.0291 C.3     1  UNL1        0.0880
     18 C          67.3128   92.8586   10.2023 C.3     1  UNL1        0.0208
     19 C          68.3370   91.7856    9.9801 C.3     1  UNL1        0.0019
     20 C          68.1982   92.9060    8.9925 C.3     1  UNL1        0.0019
     21 N          61.9481   87.1921   10.7233 N.am    1  UNL1       -0.2637
     22 C          60.4842   87.4963   10.6021 C.2     1  UNL1        0.4017
     23 O          59.7778   88.2332   11.7012 O.2     1  UNL1       -0.2264
     24 H          62.4117   86.7085   10.0019 H       1  UNL1        0.1532
     25 O          59.7267   87.0635    9.3819 O.3     1  UNL1       -0.4419
     26 C          59.5743   88.0020    8.2218 C.3     1  UNL1        0.1378
     27 C          58.9694   86.8971    7.4074 C.3     1  UNL1        0.0437
     28 C          60.1792   89.1069    9.0361 C.3     1  UNL1        0.0437
     29 C          59.4218   88.9405    7.0616 C.3     1  UNL1        0.0437
     30 C          63.2728   86.5976   12.8777 C.3     1  UNL1        0.0553
     31 C          63.1326   85.1379   12.5618 C.ar    1  UNL1       -0.0161
     32 C          63.0942   84.6798   11.1341 C.ar    1  UNL1       -0.0042
     33 C          62.9539   83.2201   10.8183 C.ar    1  UNL1       -0.0003
     34 C          62.8521   82.2186   11.9303 C.ar    1  UNL1       -0.0001
     35 C          62.8905   82.6767   13.3581 C.ar    1  UNL1        0.0035
     36 C          63.0307   84.1364   13.6739 C.ar    1  UNL1        0.0675
     37 C          63.0691   84.5945   15.1017 C.3     1  UNL1        0.4183
     38 F          63.1075   85.0527   16.5295 F       1  UNL1       -0.1659
     39 F          61.5699   84.6333   15.1296 F       1  UNL1       -0.1659
     40 F          64.5684   84.5558   15.0739 F       1  UNL1       -0.1659
@<TRIPOS>BOND
     1    16    17    1
     2    17    18    1
     3    18    19    1
     4    19    20    1
     5    17     7    1
     6     7     8   ar
     7     8     6    1
     8     6     2    1
     9     2     3   am
    10     3     4    2
    11     3     1    1
    12     1    30    1
    13    30    31    1
    14    31    32   ar
    15    32    33   ar
    16    33    34   ar
    17    34    35   ar
    18    35    36   ar
    19    36    37    1
    20    37    38    1
    21    37    39    1
    22    37    40    1
    23     1    21    1
    24    21    22   am
    25    22    23    2
    26    22    25    1
    27    25    26    1
    28    26    27    1
    29    26    28    1
    30    26    29    1
    31     8     9   ar
    32     9    10   ar
    33    10    11   ar
    34    11    12   ar
    35    12    13   ar
    36    13    14   ar
    37    14    15   ar
    38    20    18    1
    39    15     7   ar
    40    36    31   ar
    41    15    10   ar
    42     2     5    1
    43    21    24    1
@<TRIPOS>MOLECULE
*****
 40 43 0 0 0
SMALL
GASTEIGER

@<TRIPOS>ATOM
      1 C          62.4822   87.8240   11.1967 C.3     1  UNL1        0.1554
      2 N          63.3917   90.2372   10.8811 N.am    1  UNL1       -0.2966
      3 C          62.6322   89.2311   11.6942 C.2     1  UNL1        0.2411
      4 O          62.0227   89.6322   13.0048 O.2     1  UNL1       -0.2733
      5 H          63.7917   89.9739   10.0209 H       1  UNL1        0.1499
      6 C          63.5417   91.6443   11.3786 C.3     1  UNL1        0.1543
      7 N          65.7804   92.8049   12.2653 N.ar    1  UNL1       -0.3009
      8 C          64.5529   91.9606   12.4403 C.ar    1  UNL1        0.1415
      9 N          64.5144   91.4883   13.8635 N.ar    1  UNL1       -0.2276
     10 C          65.7179   92.0406   14.5680 C.ar    1  UNL1        0.1167
     11 C          66.2025   91.9077   15.9813 C.ar    1  UNL1        0.0238
     12 C          67.4695   92.5885   16.4069 C.ar    1  UNL1        0.0223
     13 C          68.2519   93.4022   15.4192 C.ar    1  UNL1        0.1006
     14 N          67.7674   93.5351   14.0058 N.ar    1  UNL1       -0.2252
     15 C          66.5004   92.8543   13.5803 C.ar    1  UNL1        0.1624
     16 C          65.5438   94.7504   10.5597 C.3     1  UNL1        0.0246
     17 C          66.2120   93.4810   10.9978 C.3     1  UNL1        0.0880
     18 C          67.3121   92.8877   10.1684 C.3     1  UNL1        0.0208
     19 C          68.2338   92.9634    8.9873 C.3     1  UNL1        0.0019
     20 C          68.2958   91.7845    9.9128 C.3     1  UNL1        0.0019
     21 N          62.2220   86.7094   12.1662 N.am    1  UNL1       -0.2637
     22 C          62.6911   85.3192   11.8542 C.2     1  UNL1        0.4017
     23 O          63.4203   85.0436   10.5727 O.2     1  UNL1       -0.2264
     24 H          61.7434   86.8903   13.0073 H       1  UNL1        0.1532
     25 O          62.4309   84.2046   12.8237 O.3     1  UNL1       -0.4419
     26 C          63.3768   83.0431   12.9026 C.3     1  UNL1        0.1378
     27 C          62.4047   82.1992   12.1327 C.3     1  UNL1        0.0437
     28 C          64.3489   83.8871   13.6725 C.3     1  UNL1        0.0437
     29 C          64.3227   81.8816   12.9815 C.3     1  UNL1        0.0437
     30 C          62.5924   87.5315    9.7296 C.3     1  UNL1        0.0553
     31 C          61.3708   87.1503    8.9470 C.ar    1  UNL1       -0.0161
     32 C          61.3534   85.8747    8.1580 C.ar    1  UNL1       -0.0042
     33 C          60.1318   85.4936    7.3755 C.ar    1  UNL1       -0.0003
     34 C          58.9277   86.3880    7.3819 C.ar    1  UNL1       -0.0001
     35 C          58.9451   87.6636    8.1709 C.ar    1  UNL1        0.0035
     36 C          60.1667   88.0447    8.9534 C.ar    1  UNL1        0.0675
     37 C          60.1842   89.3204    9.7425 C.3     1  UNL1        0.4183
     38 F          60.2017   90.5960   10.5314 F       1  UNL1       -0.1659
     39 F          60.9067   90.0046    8.6201 F       1  UNL1       -0.1659
     40 F          59.4617   88.6361   10.8648 F       1  UNL1       -0.1659
@<TRIPOS>BOND
     1    16    17    1
     2    17    18    1
     3    18    19    1
     4    19    20    1
     5    17     7    1
     6     7     8   ar
     7     8     6    1
     8     6     2    1
     9     2     3   am
    10     3     4    2
    11     3     1    1
    12     1    30    1
    13    30    31    1
    14    31    32   ar
    15    32    33   ar
    16    33    34   ar
    17    34    35   ar
    18    35    36   ar
    19    36    37    1
    20    37    38    1
    21    37    39    1
    22    37    40    1
    23     1    21    1
    24    21    22   am
    25    22    23    2
    26    22    25    1
    27    25    26    1
    28    26    27    1
    29    26    28    1
    30    26    29    1
    31     8     9   ar
    32     9    10   ar
    33    10    11   ar
    34    11    12   ar
    35    12    13   ar
    36    13    14   ar
    37    14    15   ar
    38    20    18    1
    39    15     7   ar
    40    36    31   ar
    41    15    10   ar
    42     2     5    1
    43    21    24    1
@<TRIPOS>MOLECULE
*****
 40 43 0 0 0
SMALL
GASTEIGER

@<TRIPOS>ATOM
      1 C          62.2404   87.3811   12.0240 C.3     1  UNL1        0.1554
      2 N          64.0505   88.5502   13.4755 N.am    1  UNL1       -0.2966
      3 C          62.7281   88.5886   12.7685 C.2     1  UNL1        0.2411
      4 O          61.8935   89.8343   12.8061 O.2     1  UNL1       -0.2733
      5 H          64.5983   87.7325   13.4509 H       1  UNL1        0.1499
      6 C          64.5383   89.7575   14.2200 C.3     1  UNL1        0.1543
      7 N          65.6073   92.2013   14.0458 N.ar    1  UNL1       -0.3009
      8 C          64.9255   90.9964   13.4683 C.ar    1  UNL1        0.1415
      9 N          64.6990   91.2480   12.0070 N.ar    1  UNL1       -0.2276
     10 C          65.2408   92.6084   11.6814 C.ar    1  UNL1        0.1167
     11 C          65.2955   93.3867   10.4003 C.ar    1  UNL1        0.0238
     12 C          65.9116   94.7542   10.3793 C.ar    1  UNL1        0.0223
     13 C          66.4729   95.3433   11.6394 C.ar    1  UNL1        0.1006
     14 N          66.4182   94.5650   12.9205 N.ar    1  UNL1       -0.2252
     15 C          65.8022   93.1975   12.9415 C.ar    1  UNL1        0.1624
     16 C          65.0024   92.2688   16.5716 C.3     1  UNL1        0.0246
     17 C          66.0215   92.3788   15.4765 C.3     1  UNL1        0.0880
     18 C          67.4550   92.6663   15.8122 C.3     1  UNL1        0.0208
     19 C          68.7810   92.2105   16.3451 C.3     1  UNL1        0.0019
     20 C          68.6117   93.6200   15.8607 C.3     1  UNL1        0.0019
     21 N          63.1816   86.2511   11.7290 N.am    1  UNL1       -0.2637
     22 C          63.2100   85.0461   12.6219 C.2     1  UNL1        0.4017
     23 O          62.2972   84.9712   13.8098 O.2     1  UNL1       -0.2264
     24 H          63.7807   86.3002   10.9493 H       1  UNL1        0.1532
     25 O          64.1512   83.9160   12.3269 O.3     1  UNL1       -0.4419
     26 C          63.6513   82.6867   11.6278 C.3     1  UNL1        0.1378
     27 C          63.9167   83.3336   10.3007 C.3     1  UNL1        0.0437
     28 C          63.3859   82.0399   12.9548 C.3     1  UNL1        0.0437
     29 C          63.1514   81.4574   10.9286 C.3     1  UNL1        0.0437
     30 C          60.8114   87.3038   11.5745 C.3     1  UNL1        0.0553
     31 C          60.4777   87.4028   10.1154 C.ar    1  UNL1       -0.0161
     32 C          60.5356   86.1803    9.2481 C.ar    1  UNL1       -0.0042
     33 C          60.2020   86.2794    7.7891 C.ar    1  UNL1       -0.0003
     34 C          59.8105   87.6009    7.1973 C.ar    1  UNL1       -0.0001
     35 C          59.7526   88.8234    8.0645 C.ar    1  UNL1        0.0035
     36 C          60.0862   88.7243    9.5235 C.ar    1  UNL1        0.0675
     37 C          60.0283   89.9469   10.3909 C.3     1  UNL1        0.4183
     38 F          59.9704   91.1693   11.2581 F       1  UNL1       -0.1659
     39 F          58.7556   89.4483   11.0086 F       1  UNL1       -0.1659
     40 F          61.3010   90.4454    9.7731 F       1  UNL1       -0.1659
@<TRIPOS>BOND
     1    16    17    1
     2    17    18    1
     3    18    19    1
     4    19    20    1
     5    17     7    1
     6     7     8   ar
     7     8     6    1
     8     6     2    1
     9     2     3   am
    10     3     4    2
    11     3     1    1
    12     1    30    1
    13    30    31    1
    14    31    32   ar
    15    32    33   ar
    16    33    34   ar
    17    34    35   ar
    18    35    36   ar
    19    36    37    1
    20    37    38    1
    21    37    39    1
    22    37    40    1
    23     1    21    1
    24    21    22   am
    25    22    23    2
    26    22    25    1
    27    25    26    1
    28    26    27    1
    29    26    28    1
    30    26    29    1
    31     8     9   ar
    32     9    10   ar
    33    10    11   ar
    34    11    12   ar
    35    12    13   ar
    36    13    14   ar
    37    14    15   ar
    38    20    18    1
    39    15     7   ar
    40    36    31   ar
    41    15    10   ar
    42     2     5    1
    43    21    24    1
@<TRIPOS>MOLECULE
*****
 40 43 0 0 0
SMALL
GASTEIGER

@<TRIPOS>ATOM
      1 C          64.8146   91.9585   11.8228 C.3     1  UNL1        0.1554
      2 N          63.6054   89.6589   11.8374 N.am    1  UNL1       -0.2966
      3 C          63.8443   90.9970   11.2030 C.2     1  UNL1        0.2411
      4 O          63.1128   91.3737    9.9488 O.2     1  UNL1       -0.2733
      5 H          64.0855   89.4117   12.6606 H       1  UNL1        0.1499
      6 C          62.6352   88.6975   11.2176 C.3     1  UNL1        0.1543
      7 N          62.4004   86.0965   10.6480 N.ar    1  UNL1       -0.3009
      8 C          62.6921   87.2412   11.5724 C.ar    1  UNL1        0.1415
      9 N          63.0509   86.6738   12.9138 N.ar    1  UNL1       -0.2276
     10 C          62.9808   85.1785   12.8185 C.ar    1  UNL1        0.1167
     11 C          63.2312   84.0957   13.8259 C.ar    1  UNL1        0.0238
     12 C          63.0795   82.6561   13.4329 C.ar    1  UNL1        0.0223
     13 C          62.6775   82.2993   12.0325 C.ar    1  UNL1        0.1006
     14 N          62.4271   83.3820   11.0251 N.ar    1  UNL1       -0.2252
     15 C          62.5788   84.8216   11.4181 C.ar    1  UNL1        0.1624
     16 C          62.8482   85.5758    8.1423 C.3     1  UNL1        0.0246
     17 C          62.0004   86.2071    9.2065 C.3     1  UNL1        0.0880
     18 C          60.7525   86.9491    8.8292 C.3     1  UNL1        0.0208
     19 C          60.0029   88.2401    8.6827 C.3     1  UNL1        0.0019
     20 C          59.3408   86.9433    8.3222 C.3     1  UNL1        0.0019
     21 N          64.9063   93.3656   11.3116 N.am    1  UNL1       -0.2637
     22 C          66.2437   94.0342   11.1910 C.2     1  UNL1        0.4017
     23 O          67.4894   93.2954   11.5817 O.2     1  UNL1       -0.2264
     24 H          64.0887   93.8505   11.0552 H       1  UNL1        0.1532
     25 O          66.3354   95.4414   10.6798 O.3     1  UNL1       -0.4419
     26 C          66.3042   95.7066    9.2038 C.3     1  UNL1        0.1378
     27 C          67.4413   94.7483    9.0075 C.3     1  UNL1        0.0437
     28 C          65.1671   96.6649    9.4001 C.3     1  UNL1        0.0437
     29 C          66.2729   95.9718    7.7277 C.3     1  UNL1        0.0437
     30 C          65.6932   91.5126   12.9539 C.3     1  UNL1        0.0553
     31 C          65.1872   91.5717   14.3648 C.ar    1  UNL1       -0.0161
     32 C          63.8991   90.8948   14.7286 C.ar    1  UNL1       -0.0042
     33 C          63.3932   90.9538   16.1394 C.ar    1  UNL1       -0.0003
     34 C          64.1755   91.6897   17.1865 C.ar    1  UNL1       -0.0001
     35 C          65.4637   92.3666   16.8228 C.ar    1  UNL1        0.0035
     36 C          65.9695   92.3076   15.4119 C.ar    1  UNL1        0.0675
     37 C          67.2578   92.9845   15.0481 C.3     1  UNL1        0.4183
     38 F          68.5460   93.6614   14.6843 F       1  UNL1       -0.1659
     39 F          68.0257   91.8242   15.6083 F       1  UNL1       -0.1659
     40 F          66.4899   94.1449   14.4878 F       1  UNL1       -0.1659
@<TRIPOS>BOND
     1    16    17    1
     2    17    18    1
     3    18    19    1
     4    19    20    1
     5    17     7    1
     6     7     8   ar
     7     8     6    1
     8     6     2    1
     9     2     3   am
    10     3     4    2
    11     3     1    1
    12     1    30    1
    13    30    31    1
    14    31    32   ar
    15    32    33   ar
    16    33    34   ar
    17    34    35   ar
    18    35    36   ar
    19    36    37    1
    20    37    38    1
    21    37    39    1
    22    37    40    1
    23     1    21    1
    24    21    22   am
    25    22    23    2
    26    22    25    1
    27    25    26    1
    28    26    27    1
    29    26    28    1
    30    26    29    1
    31     8     9   ar
    32     9    10   ar
    33    10    11   ar
    34    11    12   ar
    35    12    13   ar
    36    13    14   ar
    37    14    15   ar
    38    20    18    1
    39    15     7   ar
    40    36    31   ar
    41    15    10   ar
    42     2     5    1
    43    21    24    1
@<TRIPOS>MOLECULE
*****
 40 43 0 0 0
SMALL
GASTEIGER

@<TRIPOS>ATOM
      1 C          63.1371   90.3089   11.5481 C.3     1  UNL1        0.1554
      2 N          63.7073   88.0486   12.6953 N.am    1  UNL1       -0.2966
      3 C          63.0137   89.3784   12.7182 C.2     1  UNL1        0.2411
      4 O          62.1967   89.7777   13.9111 O.2     1  UNL1       -0.2733
      5 H          64.2435   87.7865   11.9123 H       1  UNL1        0.1499
      6 C          63.5839   87.1181   13.8653 C.3     1  UNL1        0.1543
      7 N          62.8479   84.9638   12.4644 N.ar    1  UNL1       -0.3009
      8 C          63.4909   85.6380   13.6400 C.ar    1  UNL1        0.1415
      9 N          64.0247   84.5723   14.5506 N.ar    1  UNL1       -0.2276
     10 C          63.7116   83.2394   13.9379 C.ar    1  UNL1        0.1167
     11 C          63.9948   81.8367   14.3874 C.ar    1  UNL1        0.0238
     12 C          63.5506   80.6759   13.5476 C.ar    1  UNL1        0.0223
     13 C          62.8233   80.9179   12.2582 C.ar    1  UNL1        0.1006
     14 N          62.5401   82.3206   11.8087 N.ar    1  UNL1       -0.2252
     15 C          62.9842   83.4814   12.6485 C.ar    1  UNL1        0.1624
     16 C          61.0542   86.6063   11.5509 C.3     1  UNL1        0.0246
     17 C          62.1849   85.6513   11.3078 C.3     1  UNL1        0.0880
     18 C          62.6526   85.3836    9.9079 C.3     1  UNL1        0.0208
     19 C          62.6594   85.7381    8.4503 C.3     1  UNL1        0.0019
     20 C          63.4560   84.5656    8.9408 C.3     1  UNL1        0.0019
     21 N          62.5773   89.9141   10.2137 N.am    1  UNL1       -0.2637
     22 C          61.1250   90.1394    9.9132 C.2     1  UNL1        0.4017
     23 O          60.2326   90.7593   10.9472 O.2     1  UNL1       -0.2264
     24 H          63.1631   89.5073    9.5350 H       1  UNL1        0.1532
     25 O          60.5652   89.7446    8.5787 O.3     1  UNL1       -0.4419
     26 C          59.7644   88.4834    8.4448 C.3     1  UNL1        0.1378
     27 C          60.0440   88.1533    9.8810 C.3     1  UNL1        0.0437
     28 C          59.4848   88.8136    7.0085 C.3     1  UNL1        0.0437
     29 C          58.9635   87.2222    8.3108 C.3     1  UNL1        0.0437
     30 C          63.8203   91.6341   11.7126 C.3     1  UNL1        0.0553
     31 C          65.0076   91.7582   12.6209 C.ar    1  UNL1       -0.0161
     32 C          64.9984   91.0881   13.9629 C.ar    1  UNL1       -0.0042
     33 C          66.1856   91.2123   14.8712 C.ar    1  UNL1       -0.0003
     34 C          67.3820   92.0064   14.4375 C.ar    1  UNL1       -0.0001
     35 C          67.3912   92.6764   13.0956 C.ar    1  UNL1        0.0035
     36 C          66.2039   92.5523   12.1873 C.ar    1  UNL1        0.0675
     37 C          66.2130   93.2223   10.8452 C.3     1  UNL1        0.4183
     38 F          66.2221   93.8923    9.5032 F       1  UNL1       -0.1659
     39 F          66.6715   91.9433   10.2098 F       1  UNL1       -0.1659
     40 F          65.7546   94.5014   11.4806 F       1  UNL1       -0.1659
@<TRIPOS>BOND
     1    16    17    1
     2    17    18    1
     3    18    19    1
     4    19    20    1
     5    17     7    1
     6     7     8   ar
     7     8     6    1
     8     6     2    1
     9     2     3   am
    10     3     4    2
    11     3     1    1
    12     1    30    1
    13    30    31    1
    14    31    32   ar
    15    32    33   ar
    16    33    34   ar
    17    34    35   ar
    18    35    36   ar
    19    36    37    1
    20    37    38    1
    21    37    39    1
    22    37    40    1
    23     1    21    1
    24    21    22   am
    25    22    23    2
    26    22    25    1
    27    25    26    1
    28    26    27    1
    29    26    28    1
    30    26    29    1
    31     8     9   ar
    32     9    10   ar
    33    10    11   ar
    34    11    12   ar
    35    12    13   ar
    36    13    14   ar
    37    14    15   ar
    38    20    18    1
    39    15     7   ar
    40    36    31   ar
    41    15    10   ar
    42     2     5    1
    43    21    24    1
