@<TRIPOS>MOLECULE
*****
 48 51 0 0 0
SMALL
GASTEIGER

@<TRIPOS>ATOM
      1 C          62.6364   88.2272   11.7003 C.3     1  UNL1        0.1043
      2 C          63.5712   90.2521   13.0330 C.2     1  UNL1        0.2482
      3 O          62.5291   90.0373   14.0903 O.2     1  UNL1       -0.2701
      4 N          63.6248   89.3470   11.8380 N.am    1  UNL1       -0.2997
      5 H          64.3088   89.4880   11.1440 H       1  UNL1        0.1498
      6 C          66.1771   92.7774   14.6398 C.ar    1  UNL1        0.0462
      7 C          65.1887   91.6576   14.5021 C.ar    1  UNL1        0.0212
      8 C          64.5596   91.3719   13.1706 C.ar    1  UNL1        0.0833
      9 C          64.9190   92.2061   11.9769 C.ar    1  UNL1        0.1592
     10 F          64.2900   91.9204   10.6455 F       1  UNL1       -0.2027
     11 C          65.9075   93.3259   12.1146 C.ar    1  UNL1        0.0972
     12 C          66.5365   93.6115   13.4461 C.ar    1  UNL1        0.0327
     13 N          66.2669   94.1601   10.9209 N.pl3   1  UNL1       -0.1922
     14 C          65.4558   95.3760   10.5839 C.3     1  UNL1        0.1156
     15 C          65.8153   96.2102    9.3902 C.3     1  UNL1        0.0252
     16 C          66.9858   95.8284    8.5334 C.3     1  UNL1        0.0292
     17 C          67.7969   94.6123    8.8704 C.3     1  UNL1        0.1727
     18 S          67.4374   93.7782   10.0641 S.O2    1  UNL1        0.0570
     19 O          67.4909   92.6789   11.0832 O.2     1  UNL1       -0.1543
     20 O          68.6265   93.0145    9.5613 O.2     1  UNL1       -0.1543
     21 N          66.8061   93.0631   15.9712 N.pl3   1  UNL1       -0.3326
     22 H          66.2490   93.3675   16.7237 H       1  UNL1        0.1468
     23 C          69.2018   94.0658   16.0422 C.3     1  UNL1        0.0229
     24 C          68.2839   92.8849   16.1562 C.3     1  UNL1        0.0871
     25 C          62.7970   86.9802   12.5184 C.3     1  UNL1        0.1443
     26 O          61.8658   85.8226   12.3118 O.3     1  UNL1       -0.3813
     27 H          61.2242   86.0434   11.6186 H       1  UNL1        0.2105
     28 C          63.8888   86.8909   13.5431 C.3     1  UNL1        0.1001
     29 N          63.9032   85.7587   14.5268 N.3     1  UNL1       -0.2917
     30 H          62.9332   85.4734   14.6618 H       1  UNL1        0.1236
     31 C          64.6829   84.5131   14.2254 C.3     1  UNL1        0.0957
     32 C          64.0935   83.4551   13.3405 C.ar    1  UNL1       -0.0064
     33 C          64.5019   83.3694   11.8998 C.ar    1  UNL1       -0.0029
     34 C          63.9125   82.3113   11.0148 C.ar    1  UNL1       -0.0003
     35 C          62.9148   81.3389   11.5706 C.ar    1  UNL1        0.0038
     36 C          62.5064   81.4247   13.0115 C.ar    1  UNL1        0.0712
     37 C          63.0957   82.4827   13.8964 C.ar    1  UNL1        0.0009
     38 C          61.5086   80.4523   13.5673 C.3     1  UNL1        0.4186
     39 F          60.5108   79.4799   14.1231 F       1  UNL1       -0.1659
     40 F          60.8117   81.5740   14.2787 F       1  UNL1       -0.1659
     41 F          62.2054   79.3306   12.8559 F       1  UNL1       -0.1659
     42 C          61.4874   88.3543   10.7444 C.3     1  UNL1        0.0484
     43 C          61.3422   87.3806    9.6126 C.ar    1  UNL1       -0.0204
     44 C          60.0224   87.2327    8.9152 C.ar    1  UNL1       -0.0042
     45 C          59.8772   86.2591    7.7834 C.ar    1  UNL1       -0.0003
     46 C          61.0517   85.4335    7.3490 C.ar    1  UNL1       -0.0000
     47 C          62.3714   85.5814    8.0463 C.ar    1  UNL1       -0.0003
     48 C          62.5167   86.5550    9.1781 C.ar    1  UNL1       -0.0042
@<TRIPOS>BOND
     1    23    24    1
     2    24    21    1
     3    21     6    1
     4     6     7   ar
     5     7     8   ar
     6     8     2    1
     7     2     3    2
     8     2     4   am
     9     4     1    1
    10     1    42    1
    11    42    43    1
    12    43    44   ar
    13    44    45   ar
    14    45    46   ar
    15    46    47   ar
    16    47    48   ar
    17     1    25    1
    18    25    26    1
    19    25    28    1
    20    28    29    1
    21    29    31    1
    22    31    32    1
    23    32    33   ar
    24    33    34   ar
    25    34    35   ar
    26    35    36   ar
    27    36    38    1
    28    38    39    1
    29    38    40    1
    30    38    41    1
    31    36    37   ar
    32     8     9   ar
    33     9    10    1
    34     9    11   ar
    35    11    13    1
    36    13    14    1
    37    14    15    1
    38    15    16    1
    39    16    17    1
    40    17    18    1
    41    18    19    2
    42    18    20    2
    43    11    12   ar
    44    12     6   ar
    45    48    43   ar
    46    37    32   ar
    47    18    13    1
    48    21    22    1
    49     4     5    1
    50    26    27    1
    51    29    30    1
@<TRIPOS>MOLECULE
*****
 48 51 0 0 0
SMALL
GASTEIGER

@<TRIPOS>ATOM
      1 C          61.8353   88.4253   10.8414 C.3     1  UNL1        0.1043
      2 C          63.1473   90.0249   12.4130 C.2     1  UNL1        0.2482
      3 O          62.2249   89.6722   13.5420 O.2     1  UNL1       -0.2701
      4 N          62.9525   89.4015   11.0627 N.am    1  UNL1       -0.2997
      5 H          63.5579   89.6330   10.3216 H       1  UNL1        0.1498
      6 C          66.1085   92.0006   14.1674 C.ar    1  UNL1        0.0462
      7 C          64.9914   91.0244   13.9461 C.ar    1  UNL1        0.0212
      8 C          64.2645   91.0012   12.6342 C.ar    1  UNL1        0.0833
      9 C          64.6548   91.9541   11.5436 C.ar    1  UNL1        0.1592
     10 F          63.9279   91.9309   10.2317 F       1  UNL1       -0.2027
     11 C          65.7719   92.9303   11.7648 C.ar    1  UNL1        0.0972
     12 C          66.4988   92.9535   13.0768 C.ar    1  UNL1        0.0327
     13 N          66.1623   93.8833   10.6742 N.pl3   1  UNL1       -0.1922
     14 C          65.5039   95.2279   10.5819 C.3     1  UNL1        0.1156
     15 C          65.8942   96.1809    9.4912 C.3     1  UNL1        0.0252
     16 C          66.9430   95.7892    8.4929 C.3     1  UNL1        0.0292
     17 C          67.6013   94.4445    8.5852 C.3     1  UNL1        0.1727
     18 S          67.2110   93.4916    9.6758 S.O2    1  UNL1        0.0570
     19 O          67.1813   92.2533   10.5218 O.2     1  UNL1       -0.1543
     20 O          68.2494   92.6698    8.9713 O.2     1  UNL1       -0.1543
     21 N          66.8354   92.0238   15.4793 N.pl3   1  UNL1       -0.3326
     22 H          66.3473   91.8466   16.3157 H       1  UNL1        0.1468
     23 C          68.7871   93.6975   15.8526 C.3     1  UNL1        0.0229
     24 C          68.3060   92.3170   15.5169 C.3     1  UNL1        0.0871
     25 C          60.4176   88.9106   10.7739 C.3     1  UNL1        0.1443
     26 O          59.4399   88.5213   11.8429 O.3     1  UNL1       -0.3813
     27 H          59.8832   87.9588   12.4971 H       1  UNL1        0.2105
     28 C          59.9775   89.7851    9.6375 C.3     1  UNL1        0.1001
     29 N          60.4150   89.4721    8.2373 N.3     1  UNL1       -0.2917
     30 H          60.9784   88.6233    8.2877 H       1  UNL1        0.1236
     31 C          59.3912   89.2491    7.1638 C.3     1  UNL1        0.0957
     32 C          59.2382   90.2471    6.0545 C.ar    1  UNL1       -0.0064
     33 C          57.8800   90.7813    5.7083 C.ar    1  UNL1       -0.0029
     34 C          57.7270   91.7792    4.5989 C.ar    1  UNL1       -0.0003
     35 C          58.9322   92.2430    3.8357 C.ar    1  UNL1        0.0038
     36 C          60.2904   91.7087    4.1820 C.ar    1  UNL1        0.0712
     37 C          60.4434   90.7108    5.2913 C.ar    1  UNL1        0.0009
     38 C          61.4957   92.1725    3.4188 C.3     1  UNL1        0.4186
     39 F          62.7009   92.6362    2.6557 F       1  UNL1       -0.1659
     40 F          60.6729   93.2474    2.7726 F       1  UNL1       -0.1659
     41 F          62.3184   91.0976    4.0650 F       1  UNL1       -0.1659
     42 C          62.1359   86.9638   10.6876 C.3     1  UNL1        0.0484
     43 C          61.8942   86.2826    9.3732 C.ar    1  UNL1       -0.0204
     44 C          63.0295   85.6169    8.6535 C.ar    1  UNL1       -0.0042
     45 C          62.7878   84.9358    7.3391 C.ar    1  UNL1       -0.0003
     46 C          61.4109   84.9204    6.7444 C.ar    1  UNL1       -0.0000
     47 C          60.2756   85.5861    7.4641 C.ar    1  UNL1       -0.0003
     48 C          60.5172   86.2672    8.7784 C.ar    1  UNL1       -0.0042
@<TRIPOS>BOND
     1    23    24    1
     2    24    21    1
     3    21     6    1
     4     6     7   ar
     5     7     8   ar
     6     8     2    1
     7     2     3    2
     8     2     4   am
     9     4     1    1
    10     1    42    1
    11    42    43    1
    12    43    44   ar
    13    44    45   ar
    14    45    46   ar
    15    46    47   ar
    16    47    48   ar
    17     1    25    1
    18    25    26    1
    19    25    28    1
    20    28    29    1
    21    29    31    1
    22    31    32    1
    23    32    33   ar
    24    33    34   ar
    25    34    35   ar
    26    35    36   ar
    27    36    38    1
    28    38    39    1
    29    38    40    1
    30    38    41    1
    31    36    37   ar
    32     8     9   ar
    33     9    10    1
    34     9    11   ar
    35    11    13    1
    36    13    14    1
    37    14    15    1
    38    15    16    1
    39    16    17    1
    40    17    18    1
    41    18    19    2
    42    18    20    2
    43    11    12   ar
    44    12     6   ar
    45    48    43   ar
    46    37    32   ar
    47    18    13    1
    48    21    22    1
    49     4     5    1
    50    26    27    1
    51    29    30    1
@<TRIPOS>MOLECULE
*****
 48 51 0 0 0
SMALL
GASTEIGER

@<TRIPOS>ATOM
      1 C          62.6492   88.1121   11.7591 C.3     1  UNL1        0.1043
      2 C          63.5497   90.1608   13.0789 C.2     1  UNL1        0.2482
      3 O          62.4572   89.9883   14.0921 O.2     1  UNL1       -0.2701
      4 N          63.6457   89.2227   11.9124 N.am    1  UNL1       -0.2997
      5 H          64.3628   89.3360   11.2474 H       1  UNL1        0.1498
      6 C          66.1577   92.6582   14.7255 C.ar    1  UNL1        0.0462
      7 C          65.1612   91.5477   14.5722 C.ar    1  UNL1        0.0212
      8 C          64.5462   91.2715   13.2322 C.ar    1  UNL1        0.0833
      9 C          64.9278   92.1058   12.0456 C.ar    1  UNL1        0.1592
     10 F          64.3128   91.8296   10.7056 F       1  UNL1       -0.2027
     11 C          65.9243   93.2164   12.1989 C.ar    1  UNL1        0.0972
     12 C          66.5392   93.4926   13.5389 C.ar    1  UNL1        0.0327
     13 N          66.3059   94.0508   11.0122 N.pl3   1  UNL1       -0.1922
     14 C          65.5019   95.2675   10.6611 C.3     1  UNL1        0.1156
     15 C          65.8835   96.1019    9.4744 C.3     1  UNL1        0.0252
     16 C          67.0691   95.7197    8.6389 C.3     1  UNL1        0.0292
     17 C          67.8731   94.5029    8.9900 C.3     1  UNL1        0.1727
     18 S          67.4915   93.6686   10.1766 S.O2    1  UNL1        0.0570
     19 O          67.5258   92.5688   11.1961 O.2     1  UNL1       -0.1543
     20 O          68.6890   92.9043    9.6952 O.2     1  UNL1       -0.1543
     21 N          66.7726   92.9344   16.0655 N.pl3   1  UNL1       -0.3326
     22 H          66.2060   93.2229   16.8171 H       1  UNL1        0.1468
     23 C          69.1696   93.9363   16.0401 C.3     1  UNL1        0.0229
     24 C          68.2509   92.7712   16.2603 C.3     1  UNL1        0.0871
     25 C          62.7770   86.8698   12.5900 C.3     1  UNL1        0.1443
     26 O          61.7931   85.7502   12.4212 O.3     1  UNL1       -0.3813
     27 H          61.1448   85.9893   11.7405 H       1  UNL1        0.2105
     28 C          63.8886   86.7471   13.5896 C.3     1  UNL1        0.1001
     29 N          63.6087   86.2039   14.9595 N.3     1  UNL1       -0.2917
     30 H          62.6071   86.3110   15.1197 H       1  UNL1        0.1236
     31 C          63.9495   84.7800   15.2857 C.3     1  UNL1        0.0957
     32 C          63.4327   83.6682   14.4216 C.ar    1  UNL1       -0.0064
     33 C          62.3603   82.7546   14.9365 C.ar    1  UNL1       -0.0029
     34 C          61.8434   81.6428   14.0723 C.ar    1  UNL1       -0.0003
     35 C          62.3991   81.4445   12.6932 C.ar    1  UNL1        0.0038
     36 C          63.4716   82.3582   12.1783 C.ar    1  UNL1        0.0712
     37 C          63.9884   83.4699   13.0424 C.ar    1  UNL1        0.0009
     38 C          64.0273   82.1599   10.7992 C.3     1  UNL1        0.4186
     39 F          64.5830   81.9617    9.4201 F       1  UNL1       -0.1659
     40 F          63.1180   80.9834   10.6019 F       1  UNL1       -0.1659
     41 F          64.9366   83.3365   10.9964 F       1  UNL1       -0.1659
     42 C          61.5249   88.2438   10.7749 C.3     1  UNL1        0.0484
     43 C          61.4106   87.2776    9.6332 C.ar    1  UNL1       -0.0204
     44 C          62.6016   86.4679    9.2138 C.ar    1  UNL1       -0.0042
     45 C          62.4873   85.5017    8.0722 C.ar    1  UNL1       -0.0003
     46 C          61.1820   85.3452    7.3499 C.ar    1  UNL1       -0.0000
     47 C          59.9910   86.1549    7.7693 C.ar    1  UNL1       -0.0003
     48 C          60.1053   87.1211    8.9110 C.ar    1  UNL1       -0.0042
@<TRIPOS>BOND
     1    23    24    1
     2    24    21    1
     3    21     6    1
     4     6     7   ar
     5     7     8   ar
     6     8     2    1
     7     2     3    2
     8     2     4   am
     9     4     1    1
    10     1    42    1
    11    42    43    1
    12    43    44   ar
    13    44    45   ar
    14    45    46   ar
    15    46    47   ar
    16    47    48   ar
    17     1    25    1
    18    25    26    1
    19    25    28    1
    20    28    29    1
    21    29    31    1
    22    31    32    1
    23    32    33   ar
    24    33    34   ar
    25    34    35   ar
    26    35    36   ar
    27    36    38    1
    28    38    39    1
    29    38    40    1
    30    38    41    1
    31    36    37   ar
    32     8     9   ar
    33     9    10    1
    34     9    11   ar
    35    11    13    1
    36    13    14    1
    37    14    15    1
    38    15    16    1
    39    16    17    1
    40    17    18    1
    41    18    19    2
    42    18    20    2
    43    11    12   ar
    44    12     6   ar
    45    48    43   ar
    46    37    32   ar
    47    18    13    1
    48    21    22    1
    49     4     5    1
    50    26    27    1
    51    29    30    1
@<TRIPOS>MOLECULE
*****
 48 51 0 0 0
SMALL
GASTEIGER

@<TRIPOS>ATOM
      1 C          62.0380   87.5717   10.8079 C.3     1  UNL1        0.1043
      2 C          62.7410   89.7083   12.1080 C.2     1  UNL1        0.2482
      3 O          61.3487   89.8359   12.6513 O.2     1  UNL1       -0.2701
      4 N          63.0856   88.5762   11.1863 N.am    1  UNL1       -0.2997
      5 H          63.9995   88.4925   10.8298 H       1  UNL1        0.1498
      6 C          65.3136   91.8048   14.2843 C.ar    1  UNL1        0.0462
      7 C          64.2659   90.8003   13.9059 C.ar    1  UNL1        0.0212
      8 C          63.7887   90.7129   12.4865 C.ar    1  UNL1        0.0833
      9 C          64.3592   91.6299   11.4456 C.ar    1  UNL1        0.1592
     10 F          63.8821   91.5424   10.0262 F       1  UNL1       -0.2027
     11 C          65.4069   92.6344   11.8241 C.ar    1  UNL1        0.0972
     12 C          65.8841   92.7219   13.2434 C.ar    1  UNL1        0.0327
     13 N          65.9775   93.5515   10.7831 N.pl3   1  UNL1       -0.1922
     14 C          65.3644   94.9014   10.5555 C.3     1  UNL1        0.1156
     15 C          65.9349   95.8184    9.5146 C.3     1  UNL1        0.0252
     16 C          67.1186   95.3856    8.7013 C.3     1  UNL1        0.0292
     17 C          67.7318   94.0356    8.9289 C.3     1  UNL1        0.1727
     18 S          67.1612   93.1186    9.9698 S.O2    1  UNL1        0.0570
     19 O          66.9798   91.9049   10.8323 O.2     1  UNL1       -0.1543
     20 O          68.2819   92.2641    9.4561 O.2     1  UNL1       -0.1543
     21 N          65.7908   91.8923   15.7037 N.pl3   1  UNL1       -0.3326
     22 H          65.3589   91.3498   16.4026 H       1  UNL1        0.1468
     23 C          68.3322   92.2848   16.0737 C.3     1  UNL1        0.0229
     24 C          66.9259   92.8064   16.0584 C.3     1  UNL1        0.0871
     25 C          61.2531   87.7473    9.5417 C.3     1  UNL1        0.1443
     26 O          61.5540   86.8905    8.3478 O.3     1  UNL1       -0.3813
     27 H          62.2773   86.2805    8.5616 H       1  UNL1        0.2105
     28 C          60.1674   88.7797    9.4694 C.3     1  UNL1        0.1001
     29 N          60.1311   89.7511    8.3270 N.3     1  UNL1       -0.2917
     30 H          61.0957   90.0288    8.1458 H       1  UNL1        0.1236
     31 C          59.5447   89.3380    7.0096 C.3     1  UNL1        0.0957
     32 C          59.4100   90.3399    5.9014 C.ar    1  UNL1       -0.0064
     33 C          58.0649   90.9146    5.5694 C.ar    1  UNL1       -0.0029
     34 C          57.9302   91.9166    4.4612 C.ar    1  UNL1       -0.0003
     35 C          59.1406   92.3437    3.6850 C.ar    1  UNL1        0.0038
     36 C          60.4858   91.7688    4.0171 C.ar    1  UNL1        0.0712
     37 C          60.6204   90.7670    5.1252 C.ar    1  UNL1        0.0009
     38 C          61.6962   92.1959    3.2409 C.3     1  UNL1        0.4186
     39 F          62.9066   92.6230    2.4647 F       1  UNL1       -0.1659
     40 F          62.4780   91.0627    3.8365 F       1  UNL1       -0.1659
     41 F          60.9144   93.3291    2.6453 F       1  UNL1       -0.1659
     42 C          61.7751   86.3914   11.6956 C.3     1  UNL1        0.0484
     43 C          62.6355   85.1672   11.5900 C.ar    1  UNL1       -0.0204
     44 C          63.0512   84.6566   10.2422 C.ar    1  UNL1       -0.0042
     45 C          63.9115   83.4325   10.1366 C.ar    1  UNL1       -0.0003
     46 C          64.3562   82.7189   11.3787 C.ar    1  UNL1       -0.0000
     47 C          63.9405   83.2294   12.7265 C.ar    1  UNL1       -0.0003
     48 C          63.0802   84.4536   12.8322 C.ar    1  UNL1       -0.0042
@<TRIPOS>BOND
     1    23    24    1
     2    24    21    1
     3    21     6    1
     4     6     7   ar
     5     7     8   ar
     6     8     2    1
     7     2     3    2
     8     2     4   am
     9     4     1    1
    10     1    42    1
    11    42    43    1
    12    43    44   ar
    13    44    45   ar
    14    45    46   ar
    15    46    47   ar
    16    47    48   ar
    17     1    25    1
    18    25    26    1
    19    25    28    1
    20    28    29    1
    21    29    31    1
    22    31    32    1
    23    32    33   ar
    24    33    34   ar
    25    34    35   ar
    26    35    36   ar
    27    36    38    1
    28    38    39    1
    29    38    40    1
    30    38    41    1
    31    36    37   ar
    32     8     9   ar
    33     9    10    1
    34     9    11   ar
    35    11    13    1
    36    13    14    1
    37    14    15    1
    38    15    16    1
    39    16    17    1
    40    17    18    1
    41    18    19    2
    42    18    20    2
    43    11    12   ar
    44    12     6   ar
    45    48    43   ar
    46    37    32   ar
    47    18    13    1
    48    21    22    1
    49     4     5    1
    50    26    27    1
    51    29    30    1
@<TRIPOS>MOLECULE
*****
 48 51 0 0 0
SMALL
GASTEIGER

@<TRIPOS>ATOM
      1 C          63.8342   87.8718   13.4877 C.3     1  UNL1        0.1043
      2 C          64.1576   90.4390   13.7218 C.2     1  UNL1        0.2482
      3 O          62.7143   90.5861   14.1028 O.2     1  UNL1       -0.2701
      4 N          64.7175   89.0819   13.4142 N.am    1  UNL1       -0.2997
      5 H          65.6648   88.9854   13.1641 H       1  UNL1        0.1498
      6 C          66.6326   93.3464   14.8040 C.ar    1  UNL1        0.0462
      7 C          65.7493   92.1364   14.8775 C.ar    1  UNL1        0.0212
      8 C          65.0410   91.6491   13.6483 C.ar    1  UNL1        0.0833
      9 C          65.2161   92.3719   12.3456 C.ar    1  UNL1        0.1592
     10 F          64.5078   91.8846   11.1165 F       1  UNL1       -0.2027
     11 C          66.0994   93.5819   12.2722 C.ar    1  UNL1        0.0972
     12 C          66.8077   94.0692   13.5014 C.ar    1  UNL1        0.0327
     13 N          66.2746   94.3047   10.9695 N.pl3   1  UNL1       -0.1922
     14 C          65.4736   95.5404   10.6838 C.3     1  UNL1        0.1156
     15 C          65.6487   96.2632    9.3811 C.3     1  UNL1        0.0252
     16 C          66.6248   95.7503    8.3642 C.3     1  UNL1        0.0292
     17 C          67.4258   94.5146    8.6499 C.3     1  UNL1        0.1727
     18 S          67.2506   93.7919    9.9525 S.O2    1  UNL1        0.0570
     19 O          67.4369   92.7674   11.0322 O.2     1  UNL1       -0.1543
     20 O          68.2914   92.9231    9.3106 O.2     1  UNL1       -0.1543
     21 N          67.3409   93.8337   16.0332 N.pl3   1  UNL1       -0.3326
     22 H          66.8266   94.2302   16.7731 H       1  UNL1        0.1468
     23 C          69.5629   92.6948   15.3150 C.3     1  UNL1        0.0229
     24 C          68.8329   93.7168   16.1351 C.3     1  UNL1        0.0871
     25 C          63.7335   87.0933   14.7660 C.3     1  UNL1        0.1443
     26 O          63.4771   87.8066   16.0604 O.3     1  UNL1       -0.3813
     27 H          63.4024   88.7595   15.8951 H       1  UNL1        0.2105
     28 C          63.8892   85.6015   14.7497 C.3     1  UNL1        0.1001
     29 N          62.6750   84.7209   14.7350 N.3     1  UNL1       -0.2917
     30 H          61.8894   85.3072   14.4534 H       1  UNL1        0.1236
     31 C          62.6422   83.5032   13.8596 C.3     1  UNL1        0.0957
     32 C          63.0417   83.6053   12.4174 C.ar    1  UNL1       -0.0064
     33 C          64.1059   82.7021   11.8682 C.ar    1  UNL1       -0.0029
     34 C          64.5055   82.8042   10.4260 C.ar    1  UNL1       -0.0003
     35 C          63.8408   83.8096    9.5330 C.ar    1  UNL1        0.0038
     36 C          62.7766   84.7129   10.0822 C.ar    1  UNL1        0.0712
     37 C          62.3771   84.6107   11.5244 C.ar    1  UNL1        0.0009
     38 C          62.1119   85.7182    9.1893 C.3     1  UNL1        0.4186
     39 F          61.4473   86.7236    8.2963 F       1  UNL1       -0.1659
     40 F          63.3082   85.7054    8.2844 F       1  UNL1       -0.1659
     41 F          60.9156   85.7311   10.0941 F       1  UNL1       -0.1659
     42 C          63.0516   87.4403   12.2831 C.3     1  UNL1        0.0484
     43 C          62.1317   88.4084   11.6000 C.ar    1  UNL1       -0.0204
     44 C          62.6541   89.2991   10.5120 C.ar    1  UNL1       -0.0042
     45 C          61.7344   90.2673    9.8289 C.ar    1  UNL1       -0.0003
     46 C          60.2922   90.3447   10.2338 C.ar    1  UNL1       -0.0000
     47 C          59.7697   89.4540   11.3218 C.ar    1  UNL1       -0.0003
     48 C          60.6895   88.4859   12.0049 C.ar    1  UNL1       -0.0042
@<TRIPOS>BOND
     1    23    24    1
     2    24    21    1
     3    21     6    1
     4     6     7   ar
     5     7     8   ar
     6     8     2    1
     7     2     3    2
     8     2     4   am
     9     4     1    1
    10     1    42    1
    11    42    43    1
    12    43    44   ar
    13    44    45   ar
    14    45    46   ar
    15    46    47   ar
    16    47    48   ar
    17     1    25    1
    18    25    26    1
    19    25    28    1
    20    28    29    1
    21    29    31    1
    22    31    32    1
    23    32    33   ar
    24    33    34   ar
    25    34    35   ar
    26    35    36   ar
    27    36    38    1
    28    38    39    1
    29    38    40    1
    30    38    41    1
    31    36    37   ar
    32     8     9   ar
    33     9    10    1
    34     9    11   ar
    35    11    13    1
    36    13    14    1
    37    14    15    1
    38    15    16    1
    39    16    17    1
    40    17    18    1
    41    18    19    2
    42    18    20    2
    43    11    12   ar
    44    12     6   ar
    45    48    43   ar
    46    37    32   ar
    47    18    13    1
    48    21    22    1
    49     4     5    1
    50    26    27    1
    51    29    30    1
@<TRIPOS>MOLECULE
*****
 48 51 0 0 0
SMALL
GASTEIGER

@<TRIPOS>ATOM
      1 C          62.3819   88.3113   11.8139 C.3     1  UNL1        0.1043
      2 C          63.5224   90.1885   13.2013 C.2     1  UNL1        0.2482
      3 O          62.5399   89.9643   14.3123 O.2     1  UNL1       -0.2701
      4 N          63.4434   89.3620   11.9521 N.am    1  UNL1       -0.2997
      5 H          64.0883   89.5091   11.2229 H       1  UNL1        0.1498
      6 C          66.3315   92.4942   14.7960 C.ar    1  UNL1        0.0462
      7 C          65.2700   91.4435   14.6578 C.ar    1  UNL1        0.0212
      8 C          64.5840   91.2393   13.3396 C.ar    1  UNL1        0.0833
      9 C          64.9596   92.0857   12.1596 C.ar    1  UNL1        0.1592
     10 F          64.2736   91.8815   10.8413 F       1  UNL1       -0.2027
     11 C          66.0211   93.1364   12.2978 C.ar    1  UNL1        0.0972
     12 C          66.7071   93.3407   13.6161 C.ar    1  UNL1        0.0327
     13 N          66.3967   93.9830   11.1178 N.pl3   1  UNL1       -0.1922
     14 C          65.6200   95.2291   10.8111 C.3     1  UNL1        0.1156
     15 C          65.9956   96.0756    9.6311 C.3     1  UNL1        0.0252
     16 C          67.1479   95.6760    8.7578 C.3     1  UNL1        0.0292
     17 C          67.9246   94.4298    9.0646 C.3     1  UNL1        0.1727
     18 S          67.5489   93.5834   10.2445 S.O2    1  UNL1        0.0570
     19 O          67.5768   92.4630   11.2415 O.2     1  UNL1       -0.1543
     20 O          68.7109   92.7946    9.7175 O.2     1  UNL1       -0.1543
     21 N          67.0175   92.6984   16.1143 N.pl3   1  UNL1       -0.3326
     22 H          66.4851   92.7894   16.9374 H       1  UNL1        0.1468
     23 C          69.2122   94.0884   16.0807 C.3     1  UNL1        0.0229
     24 C          68.5146   92.7640   16.1784 C.3     1  UNL1        0.0871
     25 C          60.9374   88.7093   11.7426 C.3     1  UNL1        0.1443
     26 O          59.8754   87.7685   12.2295 O.3     1  UNL1       -0.3813
     27 H          60.2896   86.9544   12.5560 H       1  UNL1        0.2105
     28 C          60.5550   90.0480   11.1845 C.3     1  UNL1        0.1001
     29 N          61.0276   90.4546    9.8203 N.3     1  UNL1       -0.2917
     30 H          61.9979   90.1498    9.7419 H       1  UNL1        0.1236
     31 C          60.3159   89.9520    8.5993 C.3     1  UNL1        0.0957
     32 C          60.2770   88.4816    8.3057 C.ar    1  UNL1       -0.0064
     33 C          59.0909   87.8877    7.6056 C.ar    1  UNL1       -0.0029
     34 C          59.0519   86.4171    7.3120 C.ar    1  UNL1       -0.0003
     35 C          60.1992   85.5406    7.7187 C.ar    1  UNL1        0.0038
     36 C          61.3854   86.1345    8.4189 C.ar    1  UNL1        0.0712
     37 C          61.4243   87.6050    8.7124 C.ar    1  UNL1        0.0009
     38 C          62.5327   85.2580    8.8256 C.3     1  UNL1        0.4186
     39 F          63.6800   84.3814    9.2322 F       1  UNL1       -0.1659
     40 F          63.2770   85.6571    7.5859 F       1  UNL1       -0.1659
     41 F          61.7884   84.8589   10.0652 F       1  UNL1       -0.1659
     42 C          62.7649   86.8625   11.7468 C.3     1  UNL1        0.0484
     43 C          63.1671   86.1345   12.9952 C.ar    1  UNL1       -0.0204
     44 C          64.0488   86.8078   14.0049 C.ar    1  UNL1       -0.0042
     45 C          64.4510   86.0799   15.2532 C.ar    1  UNL1       -0.0003
     46 C          63.9716   84.6788   15.4918 C.ar    1  UNL1       -0.0000
     47 C          63.0900   84.0055   14.4821 C.ar    1  UNL1       -0.0003
     48 C          62.6877   84.7334   13.2338 C.ar    1  UNL1       -0.0042
@<TRIPOS>BOND
     1    23    24    1
     2    24    21    1
     3    21     6    1
     4     6     7   ar
     5     7     8   ar
     6     8     2    1
     7     2     3    2
     8     2     4   am
     9     4     1    1
    10     1    42    1
    11    42    43    1
    12    43    44   ar
    13    44    45   ar
    14    45    46   ar
    15    46    47   ar
    16    47    48   ar
    17     1    25    1
    18    25    26    1
    19    25    28    1
    20    28    29    1
    21    29    31    1
    22    31    32    1
    23    32    33   ar
    24    33    34   ar
    25    34    35   ar
    26    35    36   ar
    27    36    38    1
    28    38    39    1
    29    38    40    1
    30    38    41    1
    31    36    37   ar
    32     8     9   ar
    33     9    10    1
    34     9    11   ar
    35    11    13    1
    36    13    14    1
    37    14    15    1
    38    15    16    1
    39    16    17    1
    40    17    18    1
    41    18    19    2
    42    18    20    2
    43    11    12   ar
    44    12     6   ar
    45    48    43   ar
    46    37    32   ar
    47    18    13    1
    48    21    22    1
    49     4     5    1
    50    26    27    1
    51    29    30    1
@<TRIPOS>MOLECULE
*****
 48 51 0 0 0
SMALL
GASTEIGER

@<TRIPOS>ATOM
      1 C          63.5093   87.3139   13.3026 C.3     1  UNL1        0.1043
      2 C          63.8532   89.8704   13.6125 C.2     1  UNL1        0.2482
      3 O          62.3781   90.0435   13.8224 O.2     1  UNL1       -0.2701
      4 N          64.4188   88.5057   13.3526 N.am    1  UNL1       -0.2997
      5 H          65.3870   88.3921   13.2148 H       1  UNL1        0.1498
      6 C          66.2727   92.6849   15.0178 C.ar    1  UNL1        0.0462
      7 C          65.3631   91.4932   14.9678 C.ar    1  UNL1        0.0212
      8 C          64.7628   91.0622   13.6625 C.ar    1  UNL1        0.0833
      9 C          65.0720   91.8228   12.4072 C.ar    1  UNL1        0.1592
     10 F          64.4717   91.3918   11.1019 F       1  UNL1       -0.2027
     11 C          65.9816   93.0145   12.4572 C.ar    1  UNL1        0.0972
     12 C          66.5819   93.4455   13.7625 C.ar    1  UNL1        0.0327
     13 N          66.2908   93.7752   11.2019 N.pl3   1  UNL1       -0.1922
     14 C          65.4945   94.9965   10.8496 C.3     1  UNL1        0.1156
     15 C          65.8038   95.7572    9.5943 C.3     1  UNL1        0.0252
     16 C          66.9094   95.2966    8.6913 C.3     1  UNL1        0.0292
     17 C          67.7057   94.0752    9.0436 C.3     1  UNL1        0.1727
     18 S          67.3965   93.3145   10.2989 S.O2    1  UNL1        0.0570
     19 O          67.4814   92.2676   11.3698 O.2     1  UNL1       -0.1543
     20 O          68.5316   92.4902    9.7679 O.2     1  UNL1       -0.1543
     21 N          66.8730   93.1160   16.3231 N.pl3   1  UNL1       -0.3326
     22 H          66.2898   93.4077   17.0606 H       1  UNL1        0.1468
     23 C          69.1794   94.2881   16.0852 C.3     1  UNL1        0.0229
     24 C          68.3619   93.1025   16.5046 C.3     1  UNL1        0.0871
     25 C          62.6039   87.1103   12.1240 C.3     1  UNL1        0.1443
     26 O          61.5587   86.0350   12.1582 O.3     1  UNL1       -0.3813
     27 H          61.6029   85.5680   13.0073 H       1  UNL1        0.2105
     28 C          62.7437   87.9820   10.9114 C.3     1  UNL1        0.1001
     29 N          62.0717   89.3224   10.8699 N.3     1  UNL1       -0.2917
     30 H          62.5492   89.8691   10.1532 H       1  UNL1        0.1236
     31 C          60.6031   89.4165   10.5795 C.3     1  UNL1        0.0957
     32 C          60.0634   88.9155    9.2727 C.ar    1  UNL1       -0.0064
     33 C          59.7348   87.4616    9.1050 C.ar    1  UNL1       -0.0029
     34 C          59.1950   86.9606    7.7982 C.ar    1  UNL1       -0.0003
     35 C          58.9839   87.9135    6.6591 C.ar    1  UNL1        0.0038
     36 C          59.3125   89.3674    6.8269 C.ar    1  UNL1        0.0712
     37 C          59.8522   89.8684    8.1337 C.ar    1  UNL1        0.0009
     38 C          59.1014   90.3203    5.6879 C.3     1  UNL1        0.4186
     39 F          58.8903   91.2732    4.5488 F       1  UNL1       -0.1659
     40 F          60.5821   90.3676    5.4530 F       1  UNL1       -0.1659
     41 F          57.6206   90.2730    5.9227 F       1  UNL1       -0.1659
     42 C          63.5051   86.3258   14.4311 C.3     1  UNL1        0.0484
     43 C          63.4322   84.8559   14.1407 C.ar    1  UNL1       -0.0204
     44 C          62.3806   84.0127   14.7988 C.ar    1  UNL1       -0.0042
     45 C          62.3077   82.5429   14.5084 C.ar    1  UNL1       -0.0003
     46 C          63.2862   81.9164   13.5599 C.ar    1  UNL1       -0.0000
     47 C          64.3378   82.7596   12.9017 C.ar    1  UNL1       -0.0003
     48 C          64.4108   84.2294   13.1921 C.ar    1  UNL1       -0.0042
@<TRIPOS>BOND
     1    23    24    1
     2    24    21    1
     3    21     6    1
     4     6     7   ar
     5     7     8   ar
     6     8     2    1
     7     2     3    2
     8     2     4   am
     9     4     1    1
    10     1    42    1
    11    42    43    1
    12    43    44   ar
    13    44    45   ar
    14    45    46   ar
    15    46    47   ar
    16    47    48   ar
    17     1    25    1
    18    25    26    1
    19    25    28    1
    20    28    29    1
    21    29    31    1
    22    31    32    1
    23    32    33   ar
    24    33    34   ar
    25    34    35   ar
    26    35    36   ar
    27    36    38    1
    28    38    39    1
    29    38    40    1
    30    38    41    1
    31    36    37   ar
    32     8     9   ar
    33     9    10    1
    34     9    11   ar
    35    11    13    1
    36    13    14    1
    37    14    15    1
    38    15    16    1
    39    16    17    1
    40    17    18    1
    41    18    19    2
    42    18    20    2
    43    11    12   ar
    44    12     6   ar
    45    48    43   ar
    46    37    32   ar
    47    18    13    1
    48    21    22    1
    49     4     5    1
    50    26    27    1
    51    29    30    1
