@<TRIPOS>MOLECULE
*****
 121 131 0 0 0
SMALL
GASTEIGER

@<TRIPOS>ATOM
      1 C          56.8736   72.4837   10.0596 C.2     1  UNK1        0.2438
      2 O          57.6505   73.1394   11.1625 O.2     1  UNK1       -0.2731
      3 N          56.5122   73.2638    8.8304 N.am    1  UNK1       -0.2717
      4 C          55.7428   72.7454    7.6517 C.3     1  UNK1        0.0939
      5 C          55.6120   73.8604    6.6570 C.3     1  UNK1        0.0220
      6 C          54.8937   73.6871    5.3515 C.3     1  UNK1        0.0019
      7 C          54.2342   73.7509    4.0058 C.3     1  UNK1        0.0039
      8 C          53.6515   74.0503    2.6564 C.3     1  UNK1        0.0473
      9 C          53.1615   74.5771    1.3401 C.3     1  UNK1        0.2054
     10 O          52.7776   75.3167    0.0930 O.3     1  UNK1       -0.4755
     11 C          52.5102   76.2493   -1.0511 C.ar    1  UNK1        0.1385
     12 C          51.8291   76.2339   -2.3874 C.ar    1  UNK1        0.0366
     13 C          51.8133   77.4711   -3.2354 C.ar    1  UNK1       -0.0011
     14 C          52.4786   78.7237   -2.7470 C.ar    1  UNK1       -0.0199
     15 C          53.1597   78.7390   -1.4107 C.ar    1  UNK1       -0.0011
     16 C          53.1755   77.5018   -0.5627 C.ar    1  UNK1        0.0366
     17 C          52.7006   81.3350   -4.0318 C.3     1  UNK1        0.0516
     18 C          53.0567   82.7715   -4.2762 C.3     1  UNK1        0.1125
     19 N          53.5217   84.1974   -4.2982 N.am    1  UNK1       -0.2995
     20 C          54.0829   85.5739   -4.0975 C.2     1  UNK1        0.2409
     21 O          53.5929   86.1007   -5.4137 O.2     1  UNK1       -0.2733
     22 C          54.7250   86.8634   -3.6794 C.3     1  UNK1        0.1530
     23 N          55.4306   88.0307   -3.0553 N.am    1  UNK1       -0.2967
     24 C          56.1803   89.0440   -2.2421 C.2     1  UNK1        0.2409
     25 O          56.0367   90.1439   -3.2519 O.2     1  UNK1       -0.2733
     26 C          56.9537   89.8758   -1.2623 C.3     1  UNK1        0.1538
     27 C          57.7298   90.5031   -0.1424 C.3     1  UNK1        0.0554
     28 C          58.4873   90.9089    1.0871 C.3     1  UNK1        0.1288
     29 C          58.3563   92.0239    0.0923 C.3     1  UNK1        0.1182
     30 N          57.5869   91.5056   -1.0865 N.am    1  UNK1       -0.2696
     31 C          57.2256   92.2856   -2.3156 C.2     1  UNK1        0.2439
     32 O          56.4487   91.6299   -3.4185 O.2     1  UNK1       -0.2731
     33 N          59.2056   91.0824    2.3924 N.ar    1  UNK1       -0.2306
     34 C          59.8650   91.0185    3.7382 C.ar    1  UNK1        0.1169
     35 C          60.4477   90.7190    5.0875 C.ar    1  UNK1        0.1445
     36 N          60.6973   92.1315    4.6487 N.ar    1  UNK1       -0.1294
     37 N          60.0742   92.3138    3.2965 N.ar    1  UNK1       -0.0640
     38 C          60.9377   90.1923    6.4038 C.3     1  UNK1        0.2542
     39 O          61.3216   89.4526    7.6509 O.3     1  UNK1       -0.4689
     40 C          61.5890   88.5201    8.7951 C.ar    1  UNK1        0.1391
     41 C          61.7325   87.4202    9.8049 C.ar    1  UNK1        0.0366
     42 C          61.7484   86.1830   10.6528 C.ar    1  UNK1       -0.0011
     43 C          61.6360   84.8422   11.3159 C.ar    1  UNK1       -0.0189
     44 C          61.6153   86.4595   10.2074 C.ar    1  UNK1       -0.0011
     45 C          61.6097   86.9028    9.9035 C.ar    1  UNK1        0.0366
     46 C          61.3986   83.4344   11.7758 C.3     1  UNK1        0.0642
     47 C          61.0425   81.9979   12.0202 C.3     1  UNK1        0.1530
     48 N          60.5775   80.5719   12.0423 N.am    1  UNK1       -0.2905
     49 C          60.0163   79.1955   11.8415 C.2     1  UNK1        0.2416
     50 O          60.5063   78.6687   13.1577 O.2     1  UNK1       -0.2733
     51 C          59.3742   77.9059   11.4234 C.3     1  UNK1        0.1530
     52 N          58.6686   76.7386   10.7992 N.am    1  UNK1       -0.2967
     53 C          57.9189   75.7252    9.9861 C.2     1  UNK1        0.2409
     54 O          58.0625   74.6254   10.9960 O.2     1  UNK1       -0.2733
     55 C          57.1455   74.8936    9.0063 C.3     1  UNK1        0.1518
     56 C          56.3694   74.2663    7.8863 C.3     1  UNK1        0.0309
     57 H          53.1392   84.3939   -5.1839 H       1  UNK1        0.1498
     58 H          55.2551   88.6428   -3.8062 H       1  UNK1        0.1499
     59 H          60.9599   80.3754   12.9279 H       1  UNK1        0.1507
     60 H          58.8441   76.1265   11.5501 H       1  UNK1        0.1499
     61 C          52.3972   82.8354   -5.6219 C.2     1  UNK1        0.0685
     62 O          51.1246   83.6097   -5.7975 O.co2   1  UNK1       -0.5475
     63 O          53.0104   82.1250   -6.7921 O.co2   1  UNK1       -0.5475
     64 N          61.7020   81.9340   13.3659 N.3     1  UNK1       -0.1666
     65 H          62.0753   80.9901   13.4664 H       1  UNK1        0.1502
     66 S          62.8181   82.8788   13.6998 S.O2    1  UNK1        0.0403
     67 O          61.9641   83.5139   14.7570 O.2     1  UNK1       -0.1575
     68 O          63.6721   82.2437   12.6428 O.2     1  UNK1       -0.1575
     69 C          63.9342   83.8236   14.0338 C.3     1  UNK1        0.1457
     70 C          64.7900   84.5145   15.0538 C.3     1  UNK1        0.0270
     71 C          65.0116   84.7694   13.5924 C.3     1  UNK1        0.0270
     72 C          54.3411   87.6031   -4.9265 C.3     1  UNK1        0.0553
     73 C          54.6796   89.0574   -5.0701 C.ar    1  UNK1       -0.0200
     74 C          54.0487   90.0678   -4.1585 C.ar    1  UNK1       -0.0042
     75 C          54.3872   91.5221   -4.3021 C.ar    1  UNK1       -0.0003
     76 C          55.3567   91.9659   -5.3572 C.ar    1  UNK1       -0.0000
     77 C          55.6952   93.4201   -5.5008 C.ar    1  UNK1       -0.0000
     78 C          56.6645   93.8639   -6.5559 C.ar    1  UNK1       -0.0000
     79 C          57.2954   92.8535   -7.4675 C.ar    1  UNK1       -0.0000
     80 C          56.9569   91.3992   -7.3239 C.ar    1  UNK1       -0.0000
     81 C          55.9875   90.9555   -6.2688 C.ar    1  UNK1       -0.0003
     82 C          55.6491   89.5012   -6.1252 C.ar    1  UNK1       -0.0042
     83 C          57.6412   93.7213   -2.4419 C.3     1  UNK1        0.1487
     84 N          58.8676   94.0809   -3.2271 N.am    1  UNK1       -0.2973
     85 C          60.2264   93.7274   -2.6993 C.2     1  UNK1        0.2370
     86 O          60.3589   93.0143   -1.3863 O.2     1  UNK1       -0.2737
     87 H          58.7807   94.5489   -4.0889 H       1  UNK1        0.1499
     88 C          61.4529   94.0870   -3.4845 C.3     1  UNK1        0.1316
     89 C          62.7221   94.4463   -2.7704 C.3     1  UNK1        0.0270
     90 N          61.4102   94.0872   -4.9840 N.3     1  UNK1       -0.2902
     91 C          62.6012   94.5525   -5.7682 C.3     0  ACE0        0.0862
     92 H          60.6277   94.6821   -5.2562 H       1  UNK1        0.1237
     93 C          56.8303   94.7976   -1.7829 C.3     1  UNK1        0.0250
     94 C          55.6799   93.8452   -1.6430 C.3     1  UNK1        0.0021
     95 C          57.9806   95.7500   -1.9228 C.3     1  UNK1        0.0021
     96 C          56.0194   95.8738   -1.1239 C.3     1  UNK1        0.0021
     97 C          56.4580   71.0479   10.1859 C.3     1  UNK1        0.1487
     98 C          56.1699   70.4668   11.5383 C.3     1  UNK1        0.0250
     99 C          56.3613   71.8186   12.1598 C.3     1  UNK1        0.0021
    100 C          55.9785   69.1151   10.9169 C.3     1  UNK1        0.0021
    101 C          55.8817   69.8857   12.8909 C.3     1  UNK1        0.0021
    102 C          57.5486   69.5550    8.3606 C.2     1  UNK1        0.2370
    103 O          58.8939   69.7711    8.9877 O.2     1  UNK1       -0.2737
    104 N          56.3306   70.1934    8.9597 N.am    1  UNK1       -0.2973
    105 H          55.4476   70.0515    8.5482 H       1  UNK1        0.1499
    106 C          57.4211   68.7004    7.1344 C.3     1  UNK1        0.1316
    107 C          58.2121   67.4311    7.0194 C.3     1  UNK1        0.0270
    108 C          57.0497   69.8393    4.8290 C.3     1  UNK1        0.0862
    109 N          56.5027   69.1151    6.0233 N.3     1  UNK1       -0.2902
    110 H          56.0596   68.2651    5.6748 H       1  UNK1        0.1237
    111 C          59.7581   77.1662   12.6705 C.3     1  UNK1        0.0553
    112 C          59.0692   77.4737   13.9670 C.ar    1  UNK1       -0.0200
    113 C          58.6969   78.8877   14.3016 C.ar    1  UNK1       -0.0042
    114 C          58.0080   79.1952   15.5981 C.ar    1  UNK1       -0.0003
    115 C          57.6915   78.0887   16.5600 C.ar    1  UNK1       -0.0000
    116 C          57.0026   78.3962   17.8565 C.ar    1  UNK1       -0.0000
    117 C          56.6860   77.2896   18.8185 C.ar    1  UNK1       -0.0000
    118 C          57.0584   75.8756   18.4840 C.ar    1  UNK1       -0.0000
    119 C          57.7473   75.5681   17.1875 C.ar    1  UNK1       -0.0000
    120 C          58.0638   76.6747   16.2255 C.ar    1  UNK1       -0.0003
    121 C          58.7527   76.3672   14.9290 C.ar    1  UNK1       -0.0042
@<TRIPOS>UNITY_ATOM_ATTR
62 1
charge -1
@<TRIPOS>BOND
     1   108   109    1
     2   109   106    1
     3   106   107    1
     4   106   102    1
     5   102   103    2
     6   102   104   am
     7    97   104    1
     8    97     1    1
     9     1     2    2
    10     1     3   am
    11     3     4    1
    12     5     4    1
    13     5     6    1
    14     6     7    1
    15     7     8    1
    16     8     9    1
    17     9    10    1
    18    10    11    1
    19    11    12   ar
    20    12    13   ar
    21    13    14   ar
    22    14    15   ar
    23    15    16   ar
    24    14    17    1
    25    17    18    1
    26    18    61    1
    27    61    62   ar
    28    61    63   ar
    29    18    19    1
    30    19    20   am
    31    20    21    2
    32    20    22    1
    33    22    72    1
    34    72    73    1
    35    73    74   ar
    36    74    75   ar
    37    75    76   ar
    38    76    77   ar
    39    77    78   ar
    40    78    79   ar
    41    79    80   ar
    42    80    81   ar
    43    81    82   ar
    44    22    23    1
    45    23    24   am
    46    24    25    2
    47    24    26    1
    48    26    27    1
    49    27    28    1
    50    28    29    1
    51    29    30    1
    52    30    31   am
    53    31    32    2
    54    31    83    1
    55    83    84    1
    56    84    85   am
    57    85    86    2
    58    85    88    1
    59    88    89    1
    60    88    90    1
    61    90    91    1
    62    83    93    1
    63    93    94    1
    64    93    95    1
    65    93    96    1
    66    28    33    1
    67    33    34   ar
    68    34    35   ar
    69    35    36   ar
    70    36    37   ar
    71    35    38    1
    72    38    39    1
    73    39    40    1
    74    40    41   ar
    75    41    42   ar
    76    42    43   ar
    77    43    44   ar
    78    44    45   ar
    79    43    46    1
    80    46    47    1
    81    47    64    1
    82    64    66    1
    83    66    67    2
    84    66    68    2
    85    66    69    1
    86    69    70    1
    87    70    71    1
    88    47    48    1
    89    48    49   am
    90    49    50    2
    91    49    51    1
    92    51   111    1
    93   111   112    1
    94   112   113   ar
    95   113   114   ar
    96   114   115   ar
    97   115   116   ar
    98   116   117   ar
    99   117   118   ar
   100   118   119   ar
   101   119   120   ar
   102   120   121   ar
   103    51    52    1
   104    52    53   am
   105    53    54    2
   106    53    55    1
   107    55    56    1
   108    97    98    1
   109    98    99    1
   110    98   100    1
   111    98   101    1
   112    55     3    1
   113    56     5    1
   114    16    11   ar
   115    82    73   ar
   116    26    30    1
   117    37    33   ar
   118    45    40   ar
   119    71    69    1
   120   121   112   ar
   121    81    76   ar
   122   120   115   ar
   123   109   110    1
   124   104   105    1
   125    19    57    1
   126    23    58    1
   127    84    87    1
   128    90    92    1
   129    64    65    1
   130    48    59    1
   131    52    60    1
