@<TRIPOS>MOLECULE
*****
 29 32 0 0 0
SMALL
GASTEIGER

@<TRIPOS>ATOM
      1 N          62.1544   88.5699   11.6936 N.am    1  UNL1       -0.2741
      2 C          62.9900   89.8157   11.6985 C.2     1  UNL1        0.2545
      3 O          63.1404   90.6227   10.4431 O.2     1  UNL1       -0.2696
      4 H          62.0556   88.0402   12.5176 H       1  UNL1        0.1557
      5 C          63.6751   90.2543   12.9587 C.ar    1  UNL1        0.1103
      6 C          63.5099   89.6333   14.3141 C.ar    1  UNL1        0.1281
      7 N          64.3784   90.3862   15.2779 N.ar    1  UNL1       -0.1619
      8 N          65.0805   91.4724   14.5181 N.ar    1  UNL1       -0.2104
      9 C          66.0594   92.5252   14.9463 C.ar    1  UNL1        0.1049
     10 C          66.6036   93.4965   13.9411 C.ar    1  UNL1        0.0546
     11 C          66.1689   93.4150   12.5078 C.ar    1  UNL1        0.1286
     12 N          66.7132   94.3864   11.5026 N.pl3   1  UNL1       -0.3425
     13 N          65.1900   92.3622   12.0796 N.ar    1  UNL1       -0.2121
     14 C          64.6458   91.3909   13.0848 C.ar    1  UNL1        0.1710
     15 H          67.3557   95.0774   11.7837 H       1  UNL1        0.1437
     16 H          66.4279   94.3329   10.5619 H       1  UNL1        0.1437
     17 C          59.2032   88.5862    7.3152 C.3     1  UNL1        0.0595
     18 C          60.1128   88.1388    8.4209 C.ar    1  UNL1        0.0898
     19 N          60.7173   86.7738    8.5673 N.ar    1  UNL1       -0.2414
     20 C          61.5557   86.7692    9.8111 C.ar    1  UNL1        0.1011
     21 C          61.4693   88.1313   10.4334 C.ar    1  UNL1        0.0999
     22 S          60.5775   88.9777    9.5741 S.2     1  UNL1       -0.0560
     23 C          62.3423   85.6066   10.3399 C.ar    1  UNL1        0.0202
     24 C          63.1417   84.7528    9.4008 C.ar    1  UNL1        0.0016
     25 C          63.9284   83.5902    9.9295 C.ar    1  UNL1        0.0009
     26 C          63.9156   83.2814   11.3973 C.ar    1  UNL1        0.0114
     27 C          63.1162   84.1352   12.3365 C.ar    1  UNL1        0.0577
     28 CL         63.1034   83.8265   13.8042 Cl      1  UNL1       -0.0822
     29 C          62.3295   85.2978   11.8077 C.ar    1  UNL1        0.0129
@<TRIPOS>BOND
     1    17    18    1
     2    18    19   ar
     3    19    20   ar
     4    20    23    1
     5    23    24   ar
     6    24    25   ar
     7    25    26   ar
     8    26    27   ar
     9    27    28    1
    10    27    29   ar
    11    20    21   ar
    12    21     1    1
    13     1     2   am
    14     2     3    2
    15     2     5    1
    16     5     6   ar
    17     6     7   ar
    18     7     8   ar
    19     8     9   ar
    20     9    10   ar
    21    10    11   ar
    22    11    12    1
    23    11    13   ar
    24    13    14   ar
    25    21    22   ar
    26    22    18   ar
    27    29    23   ar
    28    14     5   ar
    29    14     8   ar
    30     1     4    1
    31    12    15    1
    32    12    16    1
@<TRIPOS>MOLECULE
*****
 29 32 0 0 0
SMALL
GASTEIGER

@<TRIPOS>ATOM
      1 N          61.7302   86.1749   10.5584 N.am    1  UNL1       -0.2741
      2 C          62.7393   85.2580    9.9329 C.2     1  UNL1        0.2545
      3 O          63.1770   85.4798    8.5155 O.2     1  UNL1       -0.2696
      4 H          61.4429   86.0293   11.4888 H       1  UNL1        0.1557
      5 C          63.3106   84.1194   10.7249 C.ar    1  UNL1        0.1103
      6 C          64.1180   82.9808   10.1756 C.ar    1  UNL1        0.1281
      7 N          64.4812   82.0773   11.3165 N.ar    1  UNL1       -0.1619
      8 N          63.8983   82.6575   12.5710 N.ar    1  UNL1       -0.2104
      9 C          63.9328   82.1996   13.9989 C.ar    1  UNL1        0.1049
     10 C          63.2439   83.0038   15.0613 C.ar    1  UNL1        0.0546
     11 C          62.5204   84.2659   14.6956 C.ar    1  UNL1        0.1286
     12 N          61.8315   85.0701   15.7580 N.pl3   1  UNL1       -0.3425
     13 N          62.4859   84.7238   13.2677 N.ar    1  UNL1       -0.2121
     14 C          63.1748   83.9196   12.2054 C.ar    1  UNL1        0.1710
     15 H          61.8542   84.7696   16.6953 H       1  UNL1        0.1437
     16 H          61.3567   85.8985   15.5181 H       1  UNL1        0.1437
     17 C          58.9487   88.9311    7.0163 C.3     1  UNL1        0.0595
     18 C          59.8804   88.5803    8.1383 C.ar    1  UNL1        0.0898
     19 N          60.6791   89.5507    8.9571 N.ar    1  UNL1       -0.2414
     20 C          61.4693   88.7677    9.9633 C.ar    1  UNL1        0.1011
     21 C          61.1589   87.3134    9.7664 C.ar    1  UNL1        0.0999
     22 S          60.1769   87.1976    8.6385 S.2     1  UNL1       -0.0560
     23 C          62.4055   89.3387   10.9868 C.ar    1  UNL1        0.0202
     24 C          62.8907   90.7518   10.8538 C.ar    1  UNL1        0.0016
     25 C          63.8269   91.3228   11.8773 C.ar    1  UNL1        0.0009
     26 C          64.2779   90.4807   13.0337 C.ar    1  UNL1        0.0114
     27 C          63.7928   89.0675   13.1667 C.ar    1  UNL1        0.0577
     28 CL         64.2438   88.2254   14.3231 Cl      1  UNL1       -0.0822
     29 C          62.8566   88.4965   12.1433 C.ar    1  UNL1        0.0129
@<TRIPOS>BOND
     1    17    18    1
     2    18    19   ar
     3    19    20   ar
     4    20    23    1
     5    23    24   ar
     6    24    25   ar
     7    25    26   ar
     8    26    27   ar
     9    27    28    1
    10    27    29   ar
    11    20    21   ar
    12    21     1    1
    13     1     2   am
    14     2     3    2
    15     2     5    1
    16     5     6   ar
    17     6     7   ar
    18     7     8   ar
    19     8     9   ar
    20     9    10   ar
    21    10    11   ar
    22    11    12    1
    23    11    13   ar
    24    13    14   ar
    25    21    22   ar
    26    22    18   ar
    27    29    23   ar
    28    14     5   ar
    29    14     8   ar
    30     1     4    1
    31    12    15    1
    32    12    16    1
@<TRIPOS>MOLECULE
*****
 29 32 0 0 0
SMALL
GASTEIGER

@<TRIPOS>ATOM
      1 N          64.5432   89.1364   14.7139 N.am    1  UNL1       -0.2741
      2 C          63.5836   89.0448   15.8633 C.2     1  UNL1        0.2545
      3 O          63.0068   90.2941   16.4601 O.2     1  UNL1       -0.2696
      4 H          64.9218   88.3164   14.3221 H       1  UNL1        0.1557
      5 C          63.2009   87.7037   16.4156 C.ar    1  UNL1        0.1103
      6 C          62.7033   87.4315   17.8042 C.ar    1  UNL1        0.1281
      7 N          62.4435   85.9590   17.9231 N.ar    1  UNL1       -0.1619
      8 N          62.7805   85.3211   16.6080 N.ar    1  UNL1       -0.2104
      9 C          62.7216   83.8977   16.1385 C.ar    1  UNL1        0.1049
     10 C          63.1308   83.5527   14.7373 C.ar    1  UNL1        0.0546
     11 C          63.5989   84.6310   13.8056 C.ar    1  UNL1        0.1286
     12 N          64.0082   84.2859   12.4043 N.pl3   1  UNL1       -0.3425
     13 N          63.6578   86.0544   14.2751 N.ar    1  UNL1       -0.2121
     14 C          63.2486   86.3994   15.6763 C.ar    1  UNL1        0.1710
     15 H          63.9695   83.3517   12.0961 H       1  UNL1        0.1437
     16 H          64.3154   84.9936   11.7928 H       1  UNL1        0.1437
     17 C          66.7606   93.8979   14.1731 C.3     1  UNL1        0.0595
     18 C          65.9451   92.6661   13.9130 C.ar    1  UNL1        0.0898
     19 N          65.0845   92.4162   12.7101 N.ar    1  UNL1       -0.2414
     20 C          64.4545   91.0636   12.8637 C.ar    1  UNL1        0.1011
     21 C          64.9259   90.4775   14.1616 C.ar    1  UNL1        0.0999
     22 S          65.8471   91.4679   14.8100 S.2     1  UNL1       -0.0560
     23 C          63.5177   90.4116   11.8905 C.ar    1  UNL1        0.0202
     24 C          62.9675   91.1977   10.7376 C.ar    1  UNL1        0.0016
     25 C          62.0307   90.5456    9.7643 C.ar    1  UNL1        0.0009
     26 C          61.6441   89.1076    9.9439 C.ar    1  UNL1        0.0114
     27 C          62.1944   88.3213   11.0969 C.ar    1  UNL1        0.0577
     28 CL         61.8078   86.8833   11.2766 Cl      1  UNL1       -0.0822
     29 C          63.1312   88.9734   12.0702 C.ar    1  UNL1        0.0129
@<TRIPOS>BOND
     1    17    18    1
     2    18    19   ar
     3    19    20   ar
     4    20    23    1
     5    23    24   ar
     6    24    25   ar
     7    25    26   ar
     8    26    27   ar
     9    27    28    1
    10    27    29   ar
    11    20    21   ar
    12    21     1    1
    13     1     2   am
    14     2     3    2
    15     2     5    1
    16     5     6   ar
    17     6     7   ar
    18     7     8   ar
    19     8     9   ar
    20     9    10   ar
    21    10    11   ar
    22    11    12    1
    23    11    13   ar
    24    13    14   ar
    25    21    22   ar
    26    22    18   ar
    27    29    23   ar
    28    14     5   ar
    29    14     8   ar
    30     1     4    1
    31    12    15    1
    32    12    16    1
@<TRIPOS>MOLECULE
*****
 29 32 0 0 0
SMALL
GASTEIGER

@<TRIPOS>ATOM
      1 N          62.2821   88.5291   11.3961 N.am    1  UNL1       -0.2741
      2 C          62.8264   89.8736   11.0137 C.2     1  UNL1        0.2545
      3 O          62.5992   90.4090    9.6312 O.2     1  UNL1       -0.2696
      4 H          62.4312   88.1776   12.3036 H       1  UNL1        0.1557
      5 C          63.5978   90.6826   12.0140 C.ar    1  UNL1        0.1103
      6 C          64.4984   91.8414   11.7043 C.ar    1  UNL1        0.1281
      7 N          65.0613   92.3497   12.9984 N.ar    1  UNL1       -0.1619
      8 N          64.5086   91.5050   14.1079 N.ar    1  UNL1       -0.2104
      9 C          64.7121   91.5409   15.5936 C.ar    1  UNL1        0.1049
     10 C          64.0110   90.5464   16.4708 C.ar    1  UNL1        0.0546
     11 C          63.1065   89.5160   15.8623 C.ar    1  UNL1        0.1286
     12 N          62.4055   88.5215   16.7396 N.pl3   1  UNL1       -0.3425
     13 N          62.9031   89.4801   14.3767 N.ar    1  UNL1       -0.2121
     14 C          63.6041   90.4746   13.4995 C.ar    1  UNL1        0.1710
     15 H          62.5390   88.5451   17.7148 H       1  UNL1        0.1437
     16 H          61.8118   87.8453   16.3403 H       1  UNL1        0.1437
     17 C          58.9072   87.1654    7.5711 C.3     1  UNL1        0.0595
     18 C          59.9594   87.0933    8.6377 C.ar    1  UNL1        0.0898
     19 N          60.6876   85.8573    9.0757 N.ar    1  UNL1       -0.2414
     20 C          61.6463   86.2447   10.1624 C.ar    1  UNL1        0.1011
     21 C          61.5106   87.7202   10.3959 C.ar    1  UNL1        0.0999
     22 S          60.4680   88.2447    9.4536 S.2     1  UNL1       -0.0560
     23 C          62.5773   85.3191   10.8880 C.ar    1  UNL1        0.0202
     24 C          63.3374   84.2726   10.1284 C.ar    1  UNL1        0.0016
     25 C          64.2684   83.3471   10.8541 C.ar    1  UNL1        0.0009
     26 C          64.4393   83.4680   12.3393 C.ar    1  UNL1        0.0114
     27 C          63.6792   84.5146   13.0990 C.ar    1  UNL1        0.0577
     28 CL         63.8501   84.6355   14.5843 Cl      1  UNL1       -0.0822
     29 C          62.7482   85.4401   12.3734 C.ar    1  UNL1        0.0129
@<TRIPOS>BOND
     1    17    18    1
     2    18    19   ar
     3    19    20   ar
     4    20    23    1
     5    23    24   ar
     6    24    25   ar
     7    25    26   ar
     8    26    27   ar
     9    27    28    1
    10    27    29   ar
    11    20    21   ar
    12    21     1    1
    13     1     2   am
    14     2     3    2
    15     2     5    1
    16     5     6   ar
    17     6     7   ar
    18     7     8   ar
    19     8     9   ar
    20     9    10   ar
    21    10    11   ar
    22    11    12    1
    23    11    13   ar
    24    13    14   ar
    25    21    22   ar
    26    22    18   ar
    27    29    23   ar
    28    14     5   ar
    29    14     8   ar
    30     1     4    1
    31    12    15    1
    32    12    16    1
@<TRIPOS>MOLECULE
*****
 29 32 0 0 0
SMALL
GASTEIGER

@<TRIPOS>ATOM
      1 N          63.7663   87.1793   13.4650 N.am    1  UNL1       -0.2741
      2 C          63.5859   86.3039   14.6697 C.2     1  UNL1        0.2545
      3 O          63.5342   86.9139   16.0390 O.2     1  UNL1       -0.2696
      4 H          63.8002   86.7789   12.5662 H       1  UNL1        0.1557
      5 C          63.4571   84.8185   14.5050 C.ar    1  UNL1        0.1103
      6 C          63.2992   83.8190   15.6122 C.ar    1  UNL1        0.1281
      7 N          63.2081   82.4547   14.9955 N.ar    1  UNL1       -0.1619
      8 N          63.3097   82.6110   13.5072 N.ar    1  UNL1       -0.2104
      9 C          63.2820   81.6118   12.3888 C.ar    1  UNL1        0.1049
     10 C          63.4081   82.0735   10.9673 C.ar    1  UNL1        0.0546
     11 C          63.5620   83.5345   10.6641 C.ar    1  UNL1        0.1286
     12 N          63.6881   83.9962    9.2424 N.pl3   1  UNL1       -0.3425
     13 N          63.5897   84.5337   11.7824 N.ar    1  UNL1       -0.2121
     14 C          63.4636   84.0719   13.2040 C.ar    1  UNL1        0.1710
     15 H          63.6699   83.3403    8.5084 H       1  UNL1        0.1437
     16 H          63.7891   84.9550    9.0434 H       1  UNL1        0.1437
     17 C          65.2493   91.9248   15.2429 C.3     1  UNL1        0.0595
     18 C          64.5767   90.8459   14.4470 C.ar    1  UNL1        0.0898
     19 N          63.6097   91.0548   13.3195 N.ar    1  UNL1       -0.2414
     20 C          63.1884   89.7067   12.8145 C.ar    1  UNL1        0.1011
     21 C          63.8951   88.6647   13.6298 C.ar    1  UNL1        0.0999
     22 S          64.7532   89.3687   14.6387 S.2     1  UNL1       -0.0560
     23 C          62.2288   89.4463   11.6913 C.ar    1  UNL1        0.0202
     24 C          61.1096   90.4082   11.4229 C.ar    1  UNL1        0.0016
     25 C          60.1500   90.1478   10.2998 C.ar    1  UNL1        0.0009
     26 C          60.3097   88.9257    9.4450 C.ar    1  UNL1        0.0114
     27 C          61.4291   87.9637    9.7133 C.ar    1  UNL1        0.0577
     28 CL         61.5888   86.7416    8.8586 Cl      1  UNL1       -0.0822
     29 C          62.3886   88.2241   10.8365 C.ar    1  UNL1        0.0129
@<TRIPOS>BOND
     1    17    18    1
     2    18    19   ar
     3    19    20   ar
     4    20    23    1
     5    23    24   ar
     6    24    25   ar
     7    25    26   ar
     8    26    27   ar
     9    27    28    1
    10    27    29   ar
    11    20    21   ar
    12    21     1    1
    13     1     2   am
    14     2     3    2
    15     2     5    1
    16     5     6   ar
    17     6     7   ar
    18     7     8   ar
    19     8     9   ar
    20     9    10   ar
    21    10    11   ar
    22    11    12    1
    23    11    13   ar
    24    13    14   ar
    25    21    22   ar
    26    22    18   ar
    27    29    23   ar
    28    14     5   ar
    29    14     8   ar
    30     1     4    1
    31    12    15    1
    32    12    16    1
@<TRIPOS>MOLECULE
*****
 29 32 0 0 0
SMALL
GASTEIGER

@<TRIPOS>ATOM
      1 N          61.4288   86.8236   11.6483 N.am    1  UNL1       -0.2741
      2 C          62.3369   85.6473   11.4434 C.2     1  UNL1        0.2545
      3 O          62.8410   85.3196   10.0693 O.2     1  UNL1       -0.2696
      4 H          61.0979   87.0388   12.5502 H       1  UNL1        0.1557
      5 C          62.7408   84.7990   12.6127 C.ar    1  UNL1        0.1103
      6 C          63.0793   85.2955   13.9871 C.ar    1  UNL1        0.1281
      7 N          63.4247   84.1085   14.8366 N.ar    1  UNL1       -0.1619
      8 N          63.2996   82.8784   13.9874 N.ar    1  UNL1       -0.2104
      9 C          63.5160   81.4249   14.2880 C.ar    1  UNL1        0.1049
     10 C          63.3097   80.3982   13.2142 C.ar    1  UNL1        0.0546
     11 C          62.8870   80.8249   11.8397 C.ar    1  UNL1        0.1286
     12 N          62.6807   79.7981   10.7659 N.pl3   1  UNL1       -0.3425
     13 N          62.6706   82.2784   11.5391 N.ar    1  UNL1       -0.2121
     14 C          62.8769   83.3052   12.6129 C.ar    1  UNL1        0.1710
     15 H          62.8227   78.8440   10.9632 H       1  UNL1        0.1437
     16 H          62.4032   80.0781    9.8638 H       1  UNL1        0.1437
     17 C          59.0646   88.4875    7.2299 C.3     1  UNL1        0.0595
     18 C          59.9383   88.4368    8.4482 C.ar    1  UNL1        0.0898
     19 N          60.8689   89.5182    8.9113 N.ar    1  UNL1       -0.2414
     20 C          61.5405   89.0455   10.1665 C.ar    1  UNL1        0.1011
     21 C          61.0250   87.6720   10.4790 C.ar    1  UNL1        0.0999
     22 S          60.0347   87.2958    9.4170 S.2     1  UNL1       -0.0560
     23 C          62.5504   89.8118   10.9684 C.ar    1  UNL1        0.0202
     24 C          63.1850   91.0438   10.3946 C.ar    1  UNL1        0.0016
     25 C          64.1949   91.8101   11.1965 C.ar    1  UNL1        0.0009
     26 C          64.5701   91.3444   12.5720 C.ar    1  UNL1        0.0114
     27 C          63.9354   90.1123   13.1459 C.ar    1  UNL1        0.0577
     28 CL         64.3106   89.6465   14.5214 Cl      1  UNL1       -0.0822
     29 C          62.9255   89.3460   12.3440 C.ar    1  UNL1        0.0129
@<TRIPOS>BOND
     1    17    18    1
     2    18    19   ar
     3    19    20   ar
     4    20    23    1
     5    23    24   ar
     6    24    25   ar
     7    25    26   ar
     8    26    27   ar
     9    27    28    1
    10    27    29   ar
    11    20    21   ar
    12    21     1    1
    13     1     2   am
    14     2     3    2
    15     2     5    1
    16     5     6   ar
    17     6     7   ar
    18     7     8   ar
    19     8     9   ar
    20     9    10   ar
    21    10    11   ar
    22    11    12    1
    23    11    13   ar
    24    13    14   ar
    25    21    22   ar
    26    22    18   ar
    27    29    23   ar
    28    14     5   ar
    29    14     8   ar
    30     1     4    1
    31    12    15    1
    32    12    16    1
@<TRIPOS>MOLECULE
*****
 29 32 0 0 0
SMALL
GASTEIGER

@<TRIPOS>ATOM
      1 N          62.0181   85.0452   12.3895 N.am    1  UNL1       -0.2741
      2 C          62.3237   85.1452   10.9243 C.2     1  UNL1        0.2545
      3 O          63.2741   84.1744   10.2885 O.2     1  UNL1       -0.2696
      4 H          61.3944   85.6824   12.8069 H       1  UNL1        0.1557
      5 C          61.6789   86.2160   10.0951 C.ar    1  UNL1        0.1103
      6 C          60.9540   86.0102    8.7981 C.ar    1  UNL1        0.1281
      7 N          60.4729   87.3476    8.3187 N.ar    1  UNL1       -0.1619
      8 N          60.9005   88.3800    9.3194 N.ar    1  UNL1       -0.2104
      9 C          60.7074   89.8665    9.3727 C.ar    1  UNL1        0.1049
     10 C          61.2597   90.6537   10.5239 C.ar    1  UNL1        0.0546
     11 C          62.0051   89.9543   11.6217 C.ar    1  UNL1        0.1286
     12 N          62.5574   90.7416   12.7730 N.pl3   1  UNL1       -0.3425
     13 N          62.1982   88.4678   11.5684 N.ar    1  UNL1       -0.2121
     14 C          61.6459   87.6806   10.4172 C.ar    1  UNL1        0.1710
     15 H          62.4307   91.7173   12.8080 H       1  UNL1        0.1437
     16 H          63.0466   90.2826   13.4936 H       1  UNL1        0.1437
     17 C          63.9210   80.3803   13.9699 C.3     1  UNL1        0.0595
     18 C          63.5376   81.8302   13.9452 C.ar    1  UNL1        0.0898
     19 N          63.7728   82.8232   15.0446 N.ar    1  UNL1       -0.2414
     20 C          63.2322   84.1485   14.5956 C.ar    1  UNL1        0.1011
     21 C          62.6629   83.9744   13.2188 C.ar    1  UNL1        0.0999
     22 S          62.8517   82.5417   12.8168 S.2     1  UNL1       -0.0560
     23 C          63.2566   85.4238   15.3849 C.ar    1  UNL1        0.0202
     24 C          62.6397   85.4720   16.7513 C.ar    1  UNL1        0.0016
     25 C          62.6641   86.7474   17.5405 C.ar    1  UNL1        0.0009
     26 C          63.3053   87.9744   16.9635 C.ar    1  UNL1        0.0114
     27 C          63.9223   87.9262   15.5970 C.ar    1  UNL1        0.0577
     28 CL         64.5636   89.1531   15.0199 Cl      1  UNL1       -0.0822
     29 C          63.8979   86.6508   14.8077 C.ar    1  UNL1        0.0129
@<TRIPOS>BOND
     1    17    18    1
     2    18    19   ar
     3    19    20   ar
     4    20    23    1
     5    23    24   ar
     6    24    25   ar
     7    25    26   ar
     8    26    27   ar
     9    27    28    1
    10    27    29   ar
    11    20    21   ar
    12    21     1    1
    13     1     2   am
    14     2     3    2
    15     2     5    1
    16     5     6   ar
    17     6     7   ar
    18     7     8   ar
    19     8     9   ar
    20     9    10   ar
    21    10    11   ar
    22    11    12    1
    23    11    13   ar
    24    13    14   ar
    25    21    22   ar
    26    22    18   ar
    27    29    23   ar
    28    14     5   ar
    29    14     8   ar
    30     1     4    1
    31    12    15    1
    32    12    16    1
@<TRIPOS>MOLECULE
*****
 29 32 0 0 0
SMALL
GASTEIGER

@<TRIPOS>ATOM
      1 N          62.7177   86.6738   12.3560 N.am    1  UNL1       -0.2741
      2 C          63.4373   86.3344   13.6277 C.2     1  UNL1        0.2545
      3 O          64.2567   87.3780   14.3271 O.2     1  UNL1       -0.2696
      4 H          62.1799   85.9888   11.8968 H       1  UNL1        0.1557
      5 C          63.3374   84.9514   14.1998 C.ar    1  UNL1        0.1103
      6 C          63.2592   84.6035   15.6568 C.ar    1  UNL1        0.1281
      7 N          63.1716   83.1105   15.7727 N.ar    1  UNL1       -0.1619
      8 N          63.1958   82.5357   14.3874 N.ar    1  UNL1       -0.2104
      9 C          63.1377   81.1234   13.8856 C.ar    1  UNL1        0.1049
     10 C          63.1821   80.8488   12.4117 C.ar    1  UNL1        0.0546
     11 C          63.2846   81.9865   11.4395 C.ar    1  UNL1        0.1286
     12 N          63.3290   81.7118    9.9655 N.pl3   1  UNL1       -0.3425
     13 N          63.3427   83.3988   11.9413 N.ar    1  UNL1       -0.2121
     14 C          63.2983   83.6735   13.4153 C.ar    1  UNL1        0.1710
     15 H          63.2908   80.7848    9.6362 H       1  UNL1        0.1437
     16 H          63.3962   82.4585    9.3274 H       1  UNL1        0.1437
     17 C          63.8630   91.7947   11.7688 C.3     1  UNL1        0.0595
     18 C          63.3440   90.4106   11.5140 C.ar    1  UNL1        0.0898
     19 N          62.5986   89.9594   10.2930 N.ar    1  UNL1       -0.2414
     20 C          62.2733   88.5046   10.4598 C.ar    1  UNL1        0.1011
     21 C          62.8176   88.0568   11.7839 C.ar    1  UNL1        0.0999
     22 S          63.4794   89.2348   12.4354 S.2     1  UNL1       -0.0560
     23 C          61.5335   87.6481    9.4754 C.ar    1  UNL1        0.0202
     24 C          60.0672   87.8651    9.2458 C.ar    1  UNL1        0.0016
     25 C          59.3274   87.0085    8.2614 C.ar    1  UNL1        0.0009
     26 C          60.0539   85.9350    7.5067 C.ar    1  UNL1        0.0114
     27 C          61.5203   85.7180    7.7363 C.ar    1  UNL1        0.0577
     28 CL         62.2469   84.6445    6.9816 Cl      1  UNL1       -0.0822
     29 C          62.2601   86.5745    8.7207 C.ar    1  UNL1        0.0129
@<TRIPOS>BOND
     1    17    18    1
     2    18    19   ar
     3    19    20   ar
     4    20    23    1
     5    23    24   ar
     6    24    25   ar
     7    25    26   ar
     8    26    27   ar
     9    27    28    1
    10    27    29   ar
    11    20    21   ar
    12    21     1    1
    13     1     2   am
    14     2     3    2
    15     2     5    1
    16     5     6   ar
    17     6     7   ar
    18     7     8   ar
    19     8     9   ar
    20     9    10   ar
    21    10    11   ar
    22    11    12    1
    23    11    13   ar
    24    13    14   ar
    25    21    22   ar
    26    22    18   ar
    27    29    23   ar
    28    14     5   ar
    29    14     8   ar
    30     1     4    1
    31    12    15    1
    32    12    16    1
@<TRIPOS>MOLECULE
*****
 29 32 0 0 0
SMALL
GASTEIGER

@<TRIPOS>ATOM
      1 N          62.7982   88.8442   10.2971 N.am    1  UNL1       -0.2741
      2 C          62.4322   89.8980   11.2999 C.2     1  UNL1        0.2545
      3 O          61.0075   90.0475   11.7446 O.2     1  UNL1       -0.2696
      4 H          63.7333   88.7460   10.0052 H       1  UNL1        0.1557
      5 C          63.4909   90.8022   11.8581 C.ar    1  UNL1        0.1103
      6 C          64.3992   91.6923   11.0627 C.ar    1  UNL1        0.1281
      7 N          65.2968   92.4152   12.0227 N.ar    1  UNL1       -0.1619
      8 N          64.9434   91.9719   13.4114 N.ar    1  UNL1       -0.2104
      9 C          65.4936   92.3471   14.7554 C.ar    1  UNL1        0.1049
     10 C          64.9277   91.7255   15.9976 C.ar    1  UNL1        0.0546
     11 C          63.8116   90.7285   15.8959 C.ar    1  UNL1        0.1286
     12 N          63.2457   90.1069   17.1383 N.pl3   1  UNL1       -0.3425
     13 N          63.2613   90.3533   14.5519 N.ar    1  UNL1       -0.2121
     14 C          63.8272   90.9749   13.3097 C.ar    1  UNL1        0.1710
     15 H          63.6068   90.3532   18.0204 H       1  UNL1        0.1437
     16 H          62.5131   89.4526   17.0715 H       1  UNL1        0.1437
     17 C          58.6553   87.0577    7.5539 C.3     1  UNL1        0.0595
     18 C          59.8352   87.1188    8.4780 C.ar    1  UNL1        0.0898
     19 N          60.3854   85.9783    9.2821 N.ar    1  UNL1       -0.2414
     20 C          61.5623   86.4858   10.0614 C.ar    1  UNL1        0.1011
     21 C          61.7395   87.9400    9.7389 C.ar    1  UNL1        0.0999
     22 S          60.6721   88.3312    8.7603 S.2     1  UNL1       -0.0560
     23 C          62.4127   85.6806   10.9986 C.ar    1  UNL1        0.0202
     24 C          62.7315   86.2107   12.3651 C.ar    1  UNL1        0.0016
     25 C          63.5819   85.4054   13.3023 C.ar    1  UNL1        0.0009
     26 C          64.1136   84.0702   12.8731 C.ar    1  UNL1        0.0114
     27 C          63.7947   83.5400   11.5065 C.ar    1  UNL1        0.0577
     28 CL         64.3263   82.2047   11.0772 Cl      1  UNL1       -0.0822
     29 C          62.9443   84.3452   10.5693 C.ar    1  UNL1        0.0129
@<TRIPOS>BOND
     1    17    18    1
     2    18    19   ar
     3    19    20   ar
     4    20    23    1
     5    23    24   ar
     6    24    25   ar
     7    25    26   ar
     8    26    27   ar
     9    27    28    1
    10    27    29   ar
    11    20    21   ar
    12    21     1    1
    13     1     2   am
    14     2     3    2
    15     2     5    1
    16     5     6   ar
    17     6     7   ar
    18     7     8   ar
    19     8     9   ar
    20     9    10   ar
    21    10    11   ar
    22    11    12    1
    23    11    13   ar
    24    13    14   ar
    25    21    22   ar
    26    22    18   ar
    27    29    23   ar
    28    14     5   ar
    29    14     8   ar
    30     1     4    1
    31    12    15    1
    32    12    16    1
