@<TRIPOS>MOLECULE
*****
 44 48 0 0 0
SMALL
GASTEIGER

@<TRIPOS>ATOM
      1 C          62.3843   87.2392   17.8449 C.3     1  UNL1        0.0312
      2 C          63.1274   87.6254   16.6004 C.2     1  UNL1        0.0136
      3 C          63.6757   89.0140   16.4547 C.2     1  UNL1        0.0107
      4 C          64.4186   89.4002   15.2103 C.2     1  UNL1        0.0509
      5 C          64.6134   88.3978   14.1114 C.2     1  UNL1        0.0613
      6 C          64.0651   87.0093   14.2571 C.2     1  UNL1        0.2246
      7 N          64.1006   85.8158   13.3492 N.2     1  UNL1       -0.0378
      8 C          63.3795   84.6920   14.0326 C.2     1  UNL1        0.3605
      9 N          62.8984   85.1909   15.3628 N.2     1  UNL1       -0.0547
     10 C          63.3221   86.6231   15.5016 C.3     1  UNL1        0.2976
     11 C          63.1754   83.3115   13.4823 C.3     1  UNL1        0.2246
     12 C          62.6854   83.1295   12.0763 C.2     1  UNL1        0.0436
     13 C          62.4813   81.7490   11.5261 C.2     1  UNL1        0.0288
     14 C          62.7672   80.5506   12.3818 C.2     1  UNL1        0.0896
     15 N          63.2572   80.7327   13.7878 N.am    1  UNL1       -0.1770
     16 C          63.4613   82.1132   14.3380 C.2     1  UNL1        0.2627
     17 O          63.9513   82.2953   15.7439 O.2     1  UNL1       -0.2719
     18 N          62.3995   84.3277   11.2206 N.pl3   1  UNL1       -0.3329
     19 H          61.6433   84.9193   11.4387 H       1  UNL1        0.1466
     20 C          63.2656   84.6248   10.0325 C.3     1  UNL1        0.1211
     21 C          62.6800   85.2991    8.8274 C.3     1  UNL1        0.1522
     22 O          62.9077   84.7234    7.4611 O.3     1  UNL1       -0.3783
     23 H          63.4492   83.9220    7.5341 H       1  UNL1        0.2109
     24 C          61.8666   86.5491    8.9885 C.ar    1  UNL1        0.0067
     25 C          60.5154   86.6529    8.3456 C.ar    1  UNL1       -0.0018
     26 C          59.7021   87.9028    8.5068 C.ar    1  UNL1        0.0006
     27 C          60.2400   89.0492    9.3109 C.ar    1  UNL1        0.0114
     28 C          61.5912   88.9454    9.9538 C.ar    1  UNL1        0.0574
     29 CL         62.1291   90.0918   10.7579 Cl      1  UNL1       -0.0823
     30 C          62.4045   87.6955    9.7926 C.ar    1  UNL1        0.0095
     31 N          64.9670   90.7888   15.0646 N.pl3   1  UNL1       -0.3057
     32 C          64.8520   91.8925   16.0739 C.3     1  UNL1        0.0926
     33 C          65.5405   93.1033   15.5171 C.3     1  UNL1        0.0428
     34 C          66.0809   92.7480   14.1637 C.3     1  UNL1        0.0961
     35 C          65.7264   91.3175   13.8841 C.3     1  UNL1        0.1104
     36 N          66.8421   93.6624   13.2503 N.am    1  UNL1       -0.2706
     37 C          66.4039   93.8350   11.8262 C.2     1  UNL1        0.4014
     38 O          65.2044   93.0932   11.3154 O.2     1  UNL1       -0.2264
     39 H          67.6293   94.1493   13.5855 H       1  UNL1        0.1527
     40 O          67.1652   94.7495   10.9128 O.3     1  UNL1       -0.4419
     41 C          66.4290   95.7326   10.0518 C.3     1  UNL1        0.1378
     42 C          65.9893   96.4770   11.2776 C.3     1  UNL1        0.0437
     43 C          66.8687   94.9882    8.8260 C.3     1  UNL1        0.0437
     44 C          65.6928   96.7157    9.1908 C.3     1  UNL1        0.0437
@<TRIPOS>BOND
     1     1     2    1
     2     2     3    2
     3     3     4    1
     4     4    31    1
     5    31    32    1
     6    32    33    1
     7    33    34    1
     8    34    36    1
     9    36    37   am
    10    37    38    2
    11    37    40    1
    12    40    41    1
    13    41    42    1
    14    41    43    1
    15    41    44    1
    16    34    35    1
    17     4     5    2
    18     5     6    1
    19     6     7    2
    20     7     8    1
    21     8    11    1
    22    11    12    1
    23    12    18    1
    24    18    20    1
    25    20    21    1
    26    21    22    1
    27    21    24    1
    28    24    25   ar
    29    25    26   ar
    30    26    27   ar
    31    27    28   ar
    32    28    29    1
    33    28    30   ar
    34    12    13    2
    35    13    14    1
    36    14    15    2
    37    15    16    1
    38    16    17    2
    39     8     9    2
    40     9    10    1
    41    10     2    1
    42    35    31    1
    43    10     6    1
    44    16    11    1
    45    30    24   ar
    46    36    39    1
    47    18    19    1
    48    22    23    1
@<TRIPOS>MOLECULE
*****
 44 48 0 0 0
SMALL
GASTEIGER

@<TRIPOS>ATOM
      1 C          62.2034   89.7421   12.0382 C.3     1  UNL1        0.0312
      2 C          61.6953   88.8976   10.9074 C.2     1  UNL1        0.0136
      3 C          60.9898   89.5398    9.7499 C.2     1  UNL1        0.0107
      4 C          60.4817   88.6954    8.6192 C.2     1  UNL1        0.0509
      5 C          60.6791   87.2086    8.6459 C.2     1  UNL1        0.0613
      6 C          61.3846   86.5664    9.8034 C.2     1  UNL1        0.2246
      7 N          61.7233   85.1364   10.1042 N.2     1  UNL1       -0.0378
      8 C          62.4408   85.0972   11.4209 C.2     1  UNL1        0.3605
      9 N          62.5455   86.5029   11.9339 N.2     1  UNL1       -0.0547
     10 C          61.8927   87.4109   10.9342 C.3     1  UNL1        0.2976
     11 C          62.9620   83.8681   12.1047 C.3     1  UNL1        0.2246
     12 C          62.7671   83.6916   13.5815 C.2     1  UNL1        0.0436
     13 C          63.2884   82.4624   14.2652 C.2     1  UNL1        0.0288
     14 C          64.0046   81.4098   13.4721 C.2     1  UNL1        0.0896
     15 N          64.1995   81.5862   11.9954 N.am    1  UNL1       -0.1770
     16 C          63.6782   82.8154   11.3117 C.2     1  UNL1        0.2627
     17 O          63.8731   82.9918    9.8349 O.2     1  UNL1       -0.2719
     18 N          62.0509   84.7443   14.3745 N.pl3   1  UNL1       -0.3329
     19 H          61.1681   85.0662   14.0809 H       1  UNL1        0.1466
     20 C          62.6798   85.3063   15.6150 C.3     1  UNL1        0.1211
     21 C          63.9394   86.1148   15.5169 C.3     1  UNL1        0.1522
     22 O          65.2565   85.4287   15.3062 O.3     1  UNL1       -0.3783
     23 H          65.1173   84.4701   15.2556 H       1  UNL1        0.2109
     24 C          63.8819   87.6095   15.6297 C.ar    1  UNL1        0.0067
     25 C          63.1460   88.2479   16.7702 C.ar    1  UNL1       -0.0018
     26 C          63.0885   89.7425   16.8829 C.ar    1  UNL1        0.0006
     27 C          63.7670   90.5989   15.8551 C.ar    1  UNL1        0.0114
     28 C          64.5028   89.9605   14.7145 C.ar    1  UNL1        0.0574
     29 CL         65.1813   90.8168   13.6867 Cl      1  UNL1       -0.0823
     30 C          64.5603   88.4658   14.6018 C.ar    1  UNL1        0.0095
     31 N          59.7762   89.3376    7.4616 N.pl3   1  UNL1       -0.3057
     32 C          58.4259   88.9569    6.9309 C.3     1  UNL1        0.0926
     33 C          58.1124   89.8572    5.7729 C.3     1  UNL1        0.0428
     34 C          59.2688   90.7944    5.5879 C.3     1  UNL1        0.0961
     35 C          60.2972   90.4733    6.6317 C.3     1  UNL1        0.1104
     36 N          59.3779   91.8649    4.5428 N.am    1  UNL1       -0.2706
     37 C          60.6916   92.1210    3.8658 C.2     1  UNL1        0.4014
     38 O          61.8964   91.3067    4.2338 O.2     1  UNL1       -0.2264
     39 H          58.5872   92.3994    4.3013 H       1  UNL1        0.1527
     40 O          60.8006   93.1916    2.8207 O.3     1  UNL1       -0.4419
     41 C          60.8626   92.8190    1.3691 C.3     1  UNL1        0.1378
     42 C          62.3435   92.6104    1.4858 C.3     1  UNL1        0.0437
     43 C          59.3818   93.0276    1.2523 C.3     1  UNL1        0.0437
     44 C          60.9246   92.4465   -0.0826 C.3     1  UNL1        0.0437
@<TRIPOS>BOND
     1     1     2    1
     2     2     3    2
     3     3     4    1
     4     4    31    1
     5    31    32    1
     6    32    33    1
     7    33    34    1
     8    34    36    1
     9    36    37   am
    10    37    38    2
    11    37    40    1
    12    40    41    1
    13    41    42    1
    14    41    43    1
    15    41    44    1
    16    34    35    1
    17     4     5    2
    18     5     6    1
    19     6     7    2
    20     7     8    1
    21     8    11    1
    22    11    12    1
    23    12    18    1
    24    18    20    1
    25    20    21    1
    26    21    22    1
    27    21    24    1
    28    24    25   ar
    29    25    26   ar
    30    26    27   ar
    31    27    28   ar
    32    28    29    1
    33    28    30   ar
    34    12    13    2
    35    13    14    1
    36    14    15    2
    37    15    16    1
    38    16    17    2
    39     8     9    2
    40     9    10    1
    41    10     2    1
    42    35    31    1
    43    10     6    1
    44    16    11    1
    45    30    24   ar
    46    36    39    1
    47    18    19    1
    48    22    23    1
@<TRIPOS>MOLECULE
*****
 44 48 0 0 0
SMALL
GASTEIGER

@<TRIPOS>ATOM
      1 C          60.1463   85.6396    7.8987 C.3     1  UNL1        0.0312
      2 C          60.2133   87.1340    8.0100 C.2     1  UNL1        0.0136
      3 C          59.5658   87.9937    6.9652 C.2     1  UNL1        0.0107
      4 C          59.6328   89.4879    7.0765 C.2     1  UNL1        0.0509
      5 C          60.3474   90.1227    8.2326 C.2     1  UNL1        0.0613
      6 C          60.9949   89.2630    9.2774 C.2     1  UNL1        0.2246
      7 N          61.7636   89.6013   10.5203 N.2     1  UNL1       -0.0378
      8 C          62.1716   88.3160   11.1771 C.2     1  UNL1        0.3605
      9 N          61.6551   87.1833   10.3402 N.2     1  UNL1       -0.0547
     10 C          60.9279   87.7687    9.1661 C.3     1  UNL1        0.2976
     11 C          62.9580   88.1861   12.4478 C.3     1  UNL1        0.2246
     12 C          63.4456   89.4146   13.1570 C.2     1  UNL1        0.0436
     13 C          64.2320   89.2846   14.4277 C.2     1  UNL1        0.0288
     14 C          64.5308   87.9261   14.9892 C.2     1  UNL1        0.0896
     15 N          64.0433   86.6976   14.2800 N.am    1  UNL1       -0.1770
     16 C          63.2568   86.8276   13.0093 C.2     1  UNL1        0.2627
     17 O          62.7692   85.5991   12.3001 O.2     1  UNL1       -0.2719
     18 N          63.1468   90.7730   12.5956 N.pl3   1  UNL1       -0.3329
     19 H          62.3186   91.2400   12.8511 H       1  UNL1        0.1466
     20 C          64.1098   91.4201   11.6449 C.3     1  UNL1        0.1211
     21 C          65.1865   92.3242   12.1676 C.3     1  UNL1        0.1522
     22 O          65.3761   92.4877   13.6465 O.3     1  UNL1       -0.3783
     23 H          64.7257   91.9439   14.1179 H       1  UNL1        0.2109
     24 C          66.0736   93.0649   11.2113 C.ar    1  UNL1        0.0067
     25 C          65.9379   94.5510   11.0600 C.ar    1  UNL1       -0.0018
     26 C          66.8250   95.2917   10.1038 C.ar    1  UNL1        0.0006
     27 C          67.8479   94.5463    9.2988 C.ar    1  UNL1        0.0114
     28 C          67.9836   93.0601    9.4501 C.ar    1  UNL1        0.0574
     29 CL         69.0065   92.3147    8.6451 Cl      1  UNL1       -0.0823
     30 C          67.0965   92.3194   10.4063 C.ar    1  UNL1        0.0095
     31 N          58.9852   90.3477    6.0316 N.pl3   1  UNL1       -0.3057
     32 C          57.5104   90.5451    5.8424 C.3     1  UNL1        0.0926
     33 C          57.3125   91.4803    4.6864 C.3     1  UNL1        0.0428
     34 C          58.6650   91.8609    4.1612 C.3     1  UNL1        0.0961
     35 C          59.6988   91.1608    4.9926 C.3     1  UNL1        0.1104
     36 N          58.9362   92.7800    3.0073 N.am    1  UNL1       -0.2706
     37 C          60.3438   92.9994    2.5379 C.2     1  UNL1        0.4014
     38 O          61.4803   92.2997    3.2224 O.2     1  UNL1       -0.2264
     39 H          58.1903   93.2393    2.5580 H       1  UNL1        0.1527
     40 O          60.6150   93.9186    1.3839 O.3     1  UNL1       -0.4419
     41 C          61.8716   93.7626    0.5801 C.3     1  UNL1        0.1378
     42 C          61.2594   92.6057   -0.1526 C.3     1  UNL1        0.0437
     43 C          62.4839   94.9195    1.3127 C.3     1  UNL1        0.0437
     44 C          63.1284   93.6066   -0.2239 C.3     1  UNL1        0.0437
@<TRIPOS>BOND
     1     1     2    1
     2     2     3    2
     3     3     4    1
     4     4    31    1
     5    31    32    1
     6    32    33    1
     7    33    34    1
     8    34    36    1
     9    36    37   am
    10    37    38    2
    11    37    40    1
    12    40    41    1
    13    41    42    1
    14    41    43    1
    15    41    44    1
    16    34    35    1
    17     4     5    2
    18     5     6    1
    19     6     7    2
    20     7     8    1
    21     8    11    1
    22    11    12    1
    23    12    18    1
    24    18    20    1
    25    20    21    1
    26    21    22    1
    27    21    24    1
    28    24    25   ar
    29    25    26   ar
    30    26    27   ar
    31    27    28   ar
    32    28    29    1
    33    28    30   ar
    34    12    13    2
    35    13    14    1
    36    14    15    2
    37    15    16    1
    38    16    17    2
    39     8     9    2
    40     9    10    1
    41    10     2    1
    42    35    31    1
    43    10     6    1
    44    16    11    1
    45    30    24   ar
    46    36    39    1
    47    18    19    1
    48    22    23    1
@<TRIPOS>MOLECULE
*****
 44 48 0 0 0
SMALL
GASTEIGER

@<TRIPOS>ATOM
      1 C          60.5232   84.9158    7.1796 C.3     1  UNL1        0.0312
      2 C          60.4825   86.3490    7.6204 C.2     1  UNL1        0.0136
      3 C          59.8321   87.3831    6.7501 C.2     1  UNL1        0.0107
      4 C          59.7914   88.8162    7.1908 C.2     1  UNL1        0.0509
      5 C          60.4012   89.2154    8.5019 C.2     1  UNL1        0.0613
      6 C          61.0517   88.1813    9.3722 C.2     1  UNL1        0.2246
      7 N          61.7311   88.2755   10.7061 N.2     1  UNL1       -0.0378
      8 C          62.1917   86.9005   11.0898 C.2     1  UNL1        0.3605
      9 N          61.7969   85.9565    9.9930 N.2     1  UNL1       -0.0547
     10 C          61.0923   86.7480    8.9314 C.3     1  UNL1        0.2976
     11 C          62.9193   86.5338   12.3492 C.3     1  UNL1        0.2246
     12 C          63.5330   87.6059   13.2001 C.2     1  UNL1        0.0436
     13 C          64.2606   87.2392   14.4595 C.2     1  UNL1        0.0288
     14 C          64.3746   85.8004   14.8681 C.2     1  UNL1        0.0896
     15 N          63.7610   84.7283   14.0172 N.am    1  UNL1       -0.1770
     16 C          63.0333   85.0951   12.7578 C.2     1  UNL1        0.2627
     17 O          62.4197   84.0229   11.9069 O.2     1  UNL1       -0.2719
     18 N          63.4191   89.0447   12.7916 N.pl3   1  UNL1       -0.3329
     19 H          63.6809   89.3208   11.8837 H       1  UNL1        0.1466
     20 C          62.9062   90.0628   13.7665 C.3     1  UNL1        0.1211
     21 C          63.8675   90.9544   14.4951 C.3     1  UNL1        0.1522
     22 O          63.6057   91.3315   15.9232 O.3     1  UNL1       -0.3783
     23 H          62.7803   90.9179   16.2207 H       1  UNL1        0.2109
     24 C          65.0907   91.4688   13.7957 C.ar    1  UNL1        0.0067
     25 C          66.4321   91.3686   14.4594 C.ar    1  UNL1       -0.0018
     26 C          67.6553   91.8830   13.7600 C.ar    1  UNL1        0.0006
     27 C          67.5370   92.4978   12.3969 C.ar    1  UNL1        0.0114
     28 C          66.1956   92.5980   11.7332 C.ar    1  UNL1        0.0574
     29 CL         66.0774   93.2128   10.3701 Cl      1  UNL1       -0.0823
     30 C          64.9724   92.0836   12.4326 C.ar    1  UNL1        0.0095
     31 N          59.1409   89.8504    6.3204 N.pl3   1  UNL1       -0.3057
     32 C          57.6697   90.1292    6.2317 C.3     1  UNL1        0.0926
     33 C          57.4669   91.2384    5.2425 C.3     1  UNL1        0.0428
     34 C          58.8128   91.6452    4.7198 C.3     1  UNL1        0.0961
     35 C          59.8473   90.7873    5.3861 C.3     1  UNL1        0.1104
     36 N          59.0777   92.7208    3.7086 N.am    1  UNL1       -0.2706
     37 C          60.4505   92.8808    3.1258 C.2     1  UNL1        0.4014
     38 O          61.5585   91.9650    3.5542 O.2     1  UNL1       -0.2264
     39 H          58.3505   93.3219    3.4273 H       1  UNL1        0.1527
     40 O          60.7154   93.9565    2.1144 O.3     1  UNL1       -0.4419
     41 C          61.3853   93.6168    0.8161 C.3     1  UNL1        0.1378
     42 C          62.5924   94.4037    1.2330 C.3     1  UNL1        0.0437
     43 C          60.1782   92.8299    0.3992 C.3     1  UNL1        0.0437
     44 C          62.0552   93.2772   -0.4822 C.3     1  UNL1        0.0437
@<TRIPOS>BOND
     1     1     2    1
     2     2     3    2
     3     3     4    1
     4     4    31    1
     5    31    32    1
     6    32    33    1
     7    33    34    1
     8    34    36    1
     9    36    37   am
    10    37    38    2
    11    37    40    1
    12    40    41    1
    13    41    42    1
    14    41    43    1
    15    41    44    1
    16    34    35    1
    17     4     5    2
    18     5     6    1
    19     6     7    2
    20     7     8    1
    21     8    11    1
    22    11    12    1
    23    12    18    1
    24    18    20    1
    25    20    21    1
    26    21    22    1
    27    21    24    1
    28    24    25   ar
    29    25    26   ar
    30    26    27   ar
    31    27    28   ar
    32    28    29    1
    33    28    30   ar
    34    12    13    2
    35    13    14    1
    36    14    15    2
    37    15    16    1
    38    16    17    2
    39     8     9    2
    40     9    10    1
    41    10     2    1
    42    35    31    1
    43    10     6    1
    44    16    11    1
    45    30    24   ar
    46    36    39    1
    47    18    19    1
    48    22    23    1
@<TRIPOS>MOLECULE
*****
 44 48 0 0 0
SMALL
GASTEIGER

@<TRIPOS>ATOM
      1 C          59.9512   89.4991   12.1519 C.3     1  UNL1        0.0312
      2 C          60.2654   88.9651   10.7858 C.2     1  UNL1        0.0136
      3 C          59.7478   89.6705    9.5675 C.2     1  UNL1        0.0107
      4 C          60.0620   89.1365    8.2015 C.2     1  UNL1        0.0509
      5 C          60.8938   87.8970    8.0537 C.2     1  UNL1        0.0613
      6 C          61.4114   87.1916    9.2721 C.2     1  UNL1        0.2246
      7 N          62.2494   85.9586    9.4378 N.2     1  UNL1       -0.0378
      8 C          62.4531   85.7306   10.9063 C.2     1  UNL1        0.3605
      9 N          61.7411   86.8227   11.6481 N.2     1  UNL1       -0.0547
     10 C          61.0972   87.7256   10.6381 C.3     1  UNL1        0.2976
     11 C          63.2322   84.6077   11.5244 C.3     1  UNL1        0.2246
     12 C          63.6347   84.6795   12.9676 C.2     1  UNL1        0.0436
     13 C          64.4138   83.5566   13.5857 C.2     1  UNL1        0.0288
     14 C          64.7904   82.3618   12.7607 C.2     1  UNL1        0.0896
     15 N          64.3879   82.2899   11.3175 N.am    1  UNL1       -0.1770
     16 C          63.6088   83.4129   10.6994 C.2     1  UNL1        0.2627
     17 O          63.2063   83.3411    9.2562 O.2     1  UNL1       -0.2719
     18 N          63.2582   85.8742   13.7927 N.pl3   1  UNL1       -0.3329
     19 H          62.3114   86.0557   13.9928 H       1  UNL1        0.1466
     20 C          64.3240   86.7926   14.3130 C.3     1  UNL1        0.1211
     21 C          63.9513   88.1343   14.8706 C.3     1  UNL1        0.1522
     22 O          63.3058   88.2322   16.2210 O.3     1  UNL1       -0.3783
     23 H          63.2018   87.3432   16.5950 H       1  UNL1        0.2109
     24 C          64.2241   89.3780   14.0777 C.ar    1  UNL1        0.0067
     25 C          65.2159   90.3850   14.5797 C.ar    1  UNL1       -0.0018
     26 C          65.4887   91.6288   13.7869 C.ar    1  UNL1        0.0006
     27 C          64.7696   91.8656   12.4919 C.ar    1  UNL1        0.0114
     28 C          63.7777   90.8586   11.9900 C.ar    1  UNL1        0.0574
     29 CL         63.0586   91.0953   10.6950 Cl      1  UNL1       -0.0823
     30 C          63.5049   89.6148   12.7828 C.ar    1  UNL1        0.0095
     31 N          59.5443   89.8420    6.9830 N.pl3   1  UNL1       -0.3057
     32 C          58.1498   89.7520    6.4379 C.3     1  UNL1        0.0926
     33 C          58.0740   90.6157    5.2139 C.3     1  UNL1        0.0428
     34 C          59.4216   91.2395    5.0025 C.3     1  UNL1        0.0961
     35 C          60.3304   90.7613    6.0959 C.3     1  UNL1        0.1104
     36 N          59.7951   92.1769    3.8926 N.am    1  UNL1       -0.2706
     37 C          61.2041   92.2079    3.3792 C.2     1  UNL1        0.4014
     38 O          62.2398   91.3014    3.9756 O.2     1  UNL1       -0.2264
     39 H          59.1154   92.7718    3.5011 H       1  UNL1        0.1527
     40 O          61.5775   93.1453    2.2693 O.3     1  UNL1       -0.4419
     41 C          60.5629   93.5186    1.2296 C.3     1  UNL1        0.1378
     42 C          60.3099   94.8144    1.9416 C.3     1  UNL1        0.0437
     43 C          60.8158   92.2228    0.5175 C.3     1  UNL1        0.0437
     44 C          59.5482   93.8919    0.1898 C.3     1  UNL1        0.0437
@<TRIPOS>BOND
     1     1     2    1
     2     2     3    2
     3     3     4    1
     4     4    31    1
     5    31    32    1
     6    32    33    1
     7    33    34    1
     8    34    36    1
     9    36    37   am
    10    37    38    2
    11    37    40    1
    12    40    41    1
    13    41    42    1
    14    41    43    1
    15    41    44    1
    16    34    35    1
    17     4     5    2
    18     5     6    1
    19     6     7    2
    20     7     8    1
    21     8    11    1
    22    11    12    1
    23    12    18    1
    24    18    20    1
    25    20    21    1
    26    21    22    1
    27    21    24    1
    28    24    25   ar
    29    25    26   ar
    30    26    27   ar
    31    27    28   ar
    32    28    29    1
    33    28    30   ar
    34    12    13    2
    35    13    14    1
    36    14    15    2
    37    15    16    1
    38    16    17    2
    39     8     9    2
    40     9    10    1
    41    10     2    1
    42    35    31    1
    43    10     6    1
    44    16    11    1
    45    30    24   ar
    46    36    39    1
    47    18    19    1
    48    22    23    1
@<TRIPOS>MOLECULE
*****
 44 48 0 0 0
SMALL
GASTEIGER

@<TRIPOS>ATOM
      1 C          60.1287   85.6536    7.9312 C.3     1  UNL1        0.0312
      2 C          60.2210   87.1474    8.0314 C.2     1  UNL1        0.0136
      3 C          59.5787   88.0103    6.9860 C.2     1  UNL1        0.0107
      4 C          59.6709   89.5040    7.0861 C.2     1  UNL1        0.0509
      5 C          60.4055   90.1350    8.2317 C.2     1  UNL1        0.0613
      6 C          61.0479   89.2721    9.2771 C.2     1  UNL1        0.2246
      7 N          61.8325   89.6064   10.5110 N.2     1  UNL1       -0.0378
      8 C          62.2251   88.3192   11.1735 C.2     1  UNL1        0.3605
      9 N          61.6832   87.1893   10.3490 N.2     1  UNL1       -0.0547
     10 C          60.9556   87.7783    9.1769 C.3     1  UNL1        0.2976
     11 C          63.0201   88.1852   12.4384 C.3     1  UNL1        0.2246
     12 C          63.1731   86.8426   13.0895 C.2     1  UNL1        0.0436
     13 C          63.9681   86.7088   14.3545 C.2     1  UNL1        0.0288
     14 C          64.6101   87.9175   14.9683 C.2     1  UNL1        0.0896
     15 N          64.4571   89.2601   14.3173 N.am    1  UNL1       -0.1770
     16 C          63.6621   89.3939   13.0523 C.2     1  UNL1        0.2627
     17 O          63.5091   90.7366   12.4012 O.2     1  UNL1       -0.2719
     18 N          62.5311   85.6339   12.4757 N.pl3   1  UNL1       -0.3329
     19 H          61.5638   85.4837   12.5802 H       1  UNL1        0.1466
     20 C          63.3630   84.6538   11.7027 C.3     1  UNL1        0.1211
     21 C          64.0555   83.5309   12.4164 C.3     1  UNL1        0.1522
     22 O          65.2870   83.8044   13.2280 O.3     1  UNL1       -0.3783
     23 H          65.4983   84.7501   13.1862 H       1  UNL1        0.2109
     24 C          63.5166   82.1345   12.3184 C.ar    1  UNL1        0.0067
     25 C          63.0948   81.4045   13.5590 C.ar    1  UNL1       -0.0018
     26 C          62.5560   80.0081   13.4611 C.ar    1  UNL1        0.0006
     27 C          62.4389   79.3416   12.1224 C.ar    1  UNL1        0.0114
     28 C          62.8607   80.0715   10.8818 C.ar    1  UNL1        0.0574
     29 CL         62.7436   79.4050    9.5431 Cl      1  UNL1       -0.0823
     30 C          63.3995   81.4679   10.9797 C.ar    1  UNL1        0.0095
     31 N          59.0285   90.3669    6.0407 N.pl3   1  UNL1       -0.3057
     32 C          57.5552   90.5056    5.7954 C.3     1  UNL1        0.0926
     33 C          57.3629   91.4670    4.6602 C.3     1  UNL1        0.0428
     34 C          58.7172   91.9225    4.2039 C.3     1  UNL1        0.0961
     35 C          59.7467   91.2426    5.0571 C.3     1  UNL1        0.1104
     36 N          58.9937   92.8882    3.0900 N.am    1  UNL1       -0.2706
     37 C          60.3745   92.9931    2.5136 C.2     1  UNL1        0.4014
     38 O          61.4790   92.1322    3.0511 O.2     1  UNL1       -0.2264
     39 H          58.2688   93.4533    2.7372 H       1  UNL1        0.1527
     40 O          60.6510   93.9589    1.3997 O.3     1  UNL1       -0.4419
     41 C          61.3481   93.4908    0.1569 C.3     1  UNL1        0.1378
     42 C          60.1438   92.6762   -0.2120 C.3     1  UNL1        0.0437
     43 C          62.5525   94.3054    0.5256 C.3     1  UNL1        0.0437
     44 C          62.0454   93.0227   -1.0860 C.3     1  UNL1        0.0437
@<TRIPOS>BOND
     1     1     2    1
     2     2     3    2
     3     3     4    1
     4     4    31    1
     5    31    32    1
     6    32    33    1
     7    33    34    1
     8    34    36    1
     9    36    37   am
    10    37    38    2
    11    37    40    1
    12    40    41    1
    13    41    42    1
    14    41    43    1
    15    41    44    1
    16    34    35    1
    17     4     5    2
    18     5     6    1
    19     6     7    2
    20     7     8    1
    21     8    11    1
    22    11    12    1
    23    12    18    1
    24    18    20    1
    25    20    21    1
    26    21    22    1
    27    21    24    1
    28    24    25   ar
    29    25    26   ar
    30    26    27   ar
    31    27    28   ar
    32    28    29    1
    33    28    30   ar
    34    12    13    2
    35    13    14    1
    36    14    15    2
    37    15    16    1
    38    16    17    2
    39     8     9    2
    40     9    10    1
    41    10     2    1
    42    35    31    1
    43    10     6    1
    44    16    11    1
    45    30    24   ar
    46    36    39    1
    47    18    19    1
    48    22    23    1
@<TRIPOS>MOLECULE
*****
 44 48 0 0 0
SMALL
GASTEIGER

@<TRIPOS>ATOM
      1 C          63.1558   90.8840   11.3651 C.3     1  UNL1        0.0312
      2 C          62.3607   89.8381   10.6413 C.2     1  UNL1        0.0136
      3 C          61.5089   90.2220    9.4679 C.2     1  UNL1        0.0107
      4 C          60.7138   89.1762    8.7442 C.2     1  UNL1        0.0509
      5 C          60.7704   87.7462    9.1939 C.2     1  UNL1        0.0613
      6 C          61.6222   87.3623   10.3673 C.2     1  UNL1        0.2246
      7 N          61.8752   86.0431   11.0350 N.2     1  UNL1       -0.0378
      8 C          62.8268   86.2738   12.1713 C.2     1  UNL1        0.3605
      9 N          63.1618   87.7355   12.2060 N.2     1  UNL1       -0.0547
     10 C          62.4173   88.4082   11.0911 C.3     1  UNL1        0.2976
     11 C          63.3513   85.2266   13.1085 C.3     1  UNL1        0.2246
     12 C          63.5550   85.5520   14.5585 C.2     1  UNL1        0.0436
     13 C          64.0795   84.5047   15.4957 C.2     1  UNL1        0.0288
     14 C          64.4002   83.1321   14.9828 C.2     1  UNL1        0.0896
     15 N          64.1965   82.8067   13.5328 N.am    1  UNL1       -0.1770
     16 C          63.6720   83.8540   12.5956 C.2     1  UNL1        0.2627
     17 O          63.4683   83.5286   11.1456 O.2     1  UNL1       -0.2719
     18 N          63.2342   86.9245   15.0715 N.pl3   1  UNL1       -0.3329
     19 H          62.3737   87.0943   15.5185 H       1  UNL1        0.1466
     20 C          64.2246   88.0385   14.9033 C.3     1  UNL1        0.1211
     21 C          63.7509   89.4605   14.8442 C.3     1  UNL1        0.1522
     22 O          62.3341   89.7636   14.4561 O.3     1  UNL1       -0.3783
     23 H          61.8634   88.9345   14.2774 H       1  UNL1        0.2109
     24 C          64.6942   90.5794   15.1734 C.ar    1  UNL1        0.0067
     25 C          64.3809   91.5172   16.3013 C.ar    1  UNL1       -0.0018
     26 C          65.3241   92.6361   16.6305 C.ar    1  UNL1        0.0006
     27 C          66.5807   92.8173   15.8315 C.ar    1  UNL1        0.0114
     28 C          66.8939   91.8795   14.7035 C.ar    1  UNL1        0.0574
     29 CL         68.1505   92.0607   13.9046 Cl      1  UNL1       -0.0823
     30 C          65.9507   90.7606   14.3744 C.ar    1  UNL1        0.0095
     31 N          59.8620   89.5602    7.5706 N.pl3   1  UNL1       -0.3057
     32 C          58.6909   88.7871    7.0408 C.3     1  UNL1        0.0926
     33 C          58.1369   89.5337    5.8637 C.3     1  UNL1        0.0428
     34 C          58.9656   90.7682    5.6660 C.3     1  UNL1        0.0961
     35 C          60.0318   90.7846    6.7210 C.3     1  UNL1        0.1104
     36 N          58.7637   91.8046    4.6005 N.am    1  UNL1       -0.2706
     37 C          59.9304   92.2816    3.7874 C.2     1  UNL1        0.4014
     38 O          61.2992   91.7223    4.0398 O.2     1  UNL1       -0.2264
     39 H          57.8654   92.1717    4.4348 H       1  UNL1        0.1527
     40 O          59.7285   93.3179    2.7219 O.3     1  UNL1       -0.4419
     41 C          60.3900   93.1582    1.3853 C.3     1  UNL1        0.1378
     42 C          61.7059   93.5498    1.9897 C.3     1  UNL1        0.0437
     43 C          59.0743   92.7665    0.7808 C.3     1  UNL1        0.0437
     44 C          61.0517   92.9984    0.0486 C.3     1  UNL1        0.0437
@<TRIPOS>BOND
     1     1     2    1
     2     2     3    2
     3     3     4    1
     4     4    31    1
     5    31    32    1
     6    32    33    1
     7    33    34    1
     8    34    36    1
     9    36    37   am
    10    37    38    2
    11    37    40    1
    12    40    41    1
    13    41    42    1
    14    41    43    1
    15    41    44    1
    16    34    35    1
    17     4     5    2
    18     5     6    1
    19     6     7    2
    20     7     8    1
    21     8    11    1
    22    11    12    1
    23    12    18    1
    24    18    20    1
    25    20    21    1
    26    21    22    1
    27    21    24    1
    28    24    25   ar
    29    25    26   ar
    30    26    27   ar
    31    27    28   ar
    32    28    29    1
    33    28    30   ar
    34    12    13    2
    35    13    14    1
    36    14    15    2
    37    15    16    1
    38    16    17    2
    39     8     9    2
    40     9    10    1
    41    10     2    1
    42    35    31    1
    43    10     6    1
    44    16    11    1
    45    30    24   ar
    46    36    39    1
    47    18    19    1
    48    22    23    1
