@<TRIPOS>MOLECULE
*****
 42 46 0 0 0
SMALL
GASTEIGER

@<TRIPOS>ATOM
      1 C          63.1762   83.4512   13.5860 C.3     1  UNL1        0.2250
      2 C          62.6404   83.0966   12.2306 C.2     1  UNL1        0.0436
      3 C          62.3940   81.6606   11.8738 C.2     1  UNL1        0.0288
      4 C          62.6834   80.5793   12.8723 C.2     1  UNL1        0.0896
      5 N          63.2193   80.9339   14.2277 N.am    1  UNL1       -0.1770
      6 C          63.4657   82.3699   14.5845 C.2     1  UNL1        0.2627
      7 O          64.0015   82.7246   15.9399 O.2     1  UNL1       -0.2719
      8 C          64.5103   89.7057   14.4258 C.2     1  UNL1       -0.0363
      9 C          63.9469   89.4622   15.7944 C.2     1  UNL1       -0.0085
     10 C          63.4518   88.0969   16.1698 C.2     1  UNL1        0.0240
     11 C          62.8883   87.8535   17.5385 C.3     1  UNL1        0.0350
     12 C          63.5201   86.9751   15.1764 C.2     1  UNL1        0.2277
     13 N          63.1116   85.5342   15.2599 N.2     1  UNL1       -0.0345
     14 C          63.4226   84.8872   13.9429 C.2     1  UNL1        0.3649
     15 N          64.0233   85.9281   13.0454 N.2     1  UNL1       -0.0380
     16 C          64.0836   87.2186   13.8077 C.2     1  UNL1        0.2168
     17 C          64.5787   88.5839   13.4324 C.3     1  UNL1        0.0997
     18 N          65.9957   93.8015   13.2997 N.3     1  UNL1       -0.2706
     19 C          65.2987   92.9500   12.2804 C.3     1  UNL1        0.0725
     20 C          64.8036   91.5847   12.6557 C.3     1  UNL1        0.0214
     21 C          65.0055   91.0710   14.0505 C.3     1  UNL1        0.0215
     22 C          65.7025   91.9224   15.0698 C.3     1  UNL1        0.0214
     23 C          66.1977   93.2878   14.6944 C.3     1  UNL1        0.0725
     24 C          66.4909   95.1667   12.9243 C.3     1  UNL1        0.1046
     25 C          66.3233   95.6652   11.5195 C.3     1  UNL1        0.1595
     26 C          67.2488   95.8624    9.0999 C.3     1  UNL1        0.1742
     27 O          67.2460   95.1855   10.4384 O.3     1  UNL1       -0.3496
     28 N          62.3510   84.1778   11.2321 N.pl3   1  UNL1       -0.3329
     29 H          61.6616   84.8538   11.4245 H       1  UNL1        0.1466
     30 C          63.1117   84.2290    9.9404 C.3     1  UNL1        0.1211
     31 C          62.6647   85.1483    8.8426 C.3     1  UNL1        0.1522
     32 O          62.9478   84.8006    7.4112 O.3     1  UNL1       -0.3783
     33 H          63.4232   83.9560    7.3716 H       1  UNL1        0.2109
     34 C          61.9346   86.4154    9.1763 C.ar    1  UNL1        0.0069
     35 C          60.4506   86.5010    8.9759 C.ar    1  UNL1        0.0013
     36 C          59.7204   87.7681    9.3096 C.ar    1  UNL1        0.0375
     37 C          60.4744   88.9497    9.8438 C.ar    1  UNL1        0.1491
     38 C          61.9584   88.8642   10.0442 C.ar    1  UNL1        0.0913
     39 CL         62.7124   90.0458   10.5785 Cl      1  UNL1       -0.0791
     40 C          62.6885   87.5971    9.7105 C.ar    1  UNL1        0.0126
     41 O          59.7443   90.2168   10.1775 O.3     1  UNL1       -0.4706
     42 C          59.3469   90.5023   11.5954 C.3     1  UNL1        0.2525
@<TRIPOS>BOND
     1    26    27    1
     2    27    25    1
     3    25    24    1
     4    24    18    1
     5    18    19    1
     6    19    20    1
     7    20    21    1
     8    21     8    1
     9     8     9    2
    10     9    10    1
    11    10    11    1
    12    10    12    2
    13    12    13    1
    14    13    14    2
    15    14     1    1
    16     1     2    1
    17     2    28    1
    18    28    30    1
    19    30    31    1
    20    31    32    1
    21    31    34    1
    22    34    35   ar
    23    35    36   ar
    24    36    37   ar
    25    37    41    1
    26    41    42    1
    27    37    38   ar
    28    38    39    1
    29    38    40   ar
    30     2     3    2
    31     3     4    1
    32     4     5    2
    33     5     6    1
    34     6     7    2
    35    14    15    1
    36    15    16    2
    37    16    17    1
    38    21    22    1
    39    22    23    1
    40    23    18    1
    41    17     8    1
    42    16    12    1
    43     6     1    1
    44    40    34   ar
    45    28    29    1
    46    32    33    1
@<TRIPOS>MOLECULE
*****
 42 46 0 0 0
SMALL
GASTEIGER

@<TRIPOS>ATOM
      1 C          65.2144   91.9080   13.3513 C.3     1  UNL1        0.2250
      2 C          64.9895   92.2857   11.9172 C.2     1  UNL1        0.0436
      3 C          65.4285   93.6304   11.4181 C.2     1  UNL1        0.0288
      4 C          66.0924   94.5974   12.3530 C.2     1  UNL1        0.0896
      5 N          66.3173   94.2197   13.7871 N.am    1  UNL1       -0.1770
      6 C          65.8783   92.8750   14.2862 C.2     1  UNL1        0.2627
      7 O          66.1032   92.4973   15.7204 O.2     1  UNL1       -0.2719
      8 C          63.5117   85.8624   14.8190 C.2     1  UNL1       -0.0363
      9 C          63.1674   86.4679   16.1473 C.2     1  UNL1       -0.0085
     10 C          63.3754   87.9352   16.3793 C.2     1  UNL1        0.0240
     11 C          63.0311   88.5407   17.7078 C.3     1  UNL1        0.0350
     12 C          63.9277   88.7969   15.2828 C.2     1  UNL1        0.2277
     13 N          64.2388   90.2629   15.2186 N.2     1  UNL1       -0.0345
     14 C          64.7754   90.5634   13.8505 C.2     1  UNL1        0.3649
     15 N          64.7959   89.2831   13.0691 N.2     1  UNL1       -0.0380
     16 C          64.2721   88.1914   13.9544 C.2     1  UNL1        0.2168
     17 C          64.0641   86.7241   13.7224 C.3     1  UNL1        0.0997
     18 N          62.8876   81.4605   14.1230 N.3     1  UNL1       -0.2706
     19 C          61.7750   82.2966   14.6824 C.3     1  UNL1        0.0725
     20 C          61.9830   83.7638   14.9144 C.3     1  UNL1        0.0214
     21 C          63.3037   84.3950   14.5870 C.3     1  UNL1        0.0215
     22 C          64.4164   83.5590   14.0276 C.3     1  UNL1        0.0214
     23 C          64.2084   82.0917   13.7956 C.3     1  UNL1        0.0725
     24 C          62.6796   79.9932   13.8911 C.3     1  UNL1        0.1046
     25 C          62.4730   79.4760   12.4983 C.3     1  UNL1        0.1595
     26 C          62.8435   79.7405    9.9404 C.3     1  UNL1        0.1742
     27 O          62.8355   80.3301   11.3196 O.3     1  UNL1       -0.3496
     28 N          64.3256   91.3188   10.9822 N.pl3   1  UNL1       -0.3329
     29 H          64.8681   90.6704   10.4778 H       1  UNL1        0.1466
     30 C          62.8350   91.3398   10.8156 C.3     1  UNL1        0.1211
     31 C          62.0095   90.1863   11.3035 C.3     1  UNL1        0.1522
     32 O          61.5661   90.1340   12.7356 O.3     1  UNL1       -0.3783
     33 H          61.8955   90.9165   13.2048 H       1  UNL1        0.2109
     34 C          61.6276   89.0850   10.3595 C.ar    1  UNL1        0.0069
     35 C          62.3523   87.7725   10.4055 C.ar    1  UNL1        0.0013
     36 C          61.9703   86.6713    9.4614 C.ar    1  UNL1        0.0375
     37 C          60.8635   86.8825    8.4713 C.ar    1  UNL1        0.1491
     38 C          60.1388   88.1949    8.4252 C.ar    1  UNL1        0.0913
     39 CL         59.0320   88.4061    7.4350 Cl      1  UNL1       -0.0791
     40 C          60.5208   89.2962    9.3693 C.ar    1  UNL1        0.0126
     41 O          60.4815   85.7812    7.5272 O.3     1  UNL1       -0.4706
     42 C          61.5436   84.9208    6.9095 C.3     1  UNL1        0.2525
@<TRIPOS>BOND
     1    26    27    1
     2    27    25    1
     3    25    24    1
     4    24    18    1
     5    18    19    1
     6    19    20    1
     7    20    21    1
     8    21     8    1
     9     8     9    2
    10     9    10    1
    11    10    11    1
    12    10    12    2
    13    12    13    1
    14    13    14    2
    15    14     1    1
    16     1     2    1
    17     2    28    1
    18    28    30    1
    19    30    31    1
    20    31    32    1
    21    31    34    1
    22    34    35   ar
    23    35    36   ar
    24    36    37   ar
    25    37    41    1
    26    41    42    1
    27    37    38   ar
    28    38    39    1
    29    38    40   ar
    30     2     3    2
    31     3     4    1
    32     4     5    2
    33     5     6    1
    34     6     7    2
    35    14    15    1
    36    15    16    2
    37    16    17    1
    38    21    22    1
    39    22    23    1
    40    23    18    1
    41    17     8    1
    42    16    12    1
    43     6     1    1
    44    40    34   ar
    45    28    29    1
    46    32    33    1
@<TRIPOS>MOLECULE
*****
 42 46 0 0 0
SMALL
GASTEIGER

@<TRIPOS>ATOM
      1 C          63.0963   83.3806   14.1619 C.3     1  UNL1        0.2250
      2 C          63.9724   82.5880   13.2376 C.2     1  UNL1        0.0436
      3 C          63.7171   81.1240   13.0340 C.2     1  UNL1        0.0288
      4 C          62.5859   80.4525   13.7546 C.2     1  UNL1        0.0896
      5 N          61.7098   81.2451   14.6789 N.am    1  UNL1       -0.1770
      6 C          61.9651   82.7091   14.8825 C.2     1  UNL1        0.2627
      7 O          61.0890   83.5017   15.8068 O.2     1  UNL1       -0.2719
      8 C          64.4373   89.6875   14.3270 C.2     1  UNL1       -0.0363
      9 C          63.9351   89.5791   15.7362 C.2     1  UNL1       -0.0085
     10 C          63.4630   88.2569   16.2645 C.2     1  UNL1        0.0240
     11 C          62.9608   88.1485   17.6738 C.3     1  UNL1        0.0350
     12 C          63.4931   87.0433   15.3835 C.2     1  UNL1        0.2277
     13 N          63.0952   85.6174   15.6254 N.2     1  UNL1       -0.0345
     14 C          63.3515   84.8447   14.3655 C.2     1  UNL1        0.3649
     15 N          63.9078   85.7929   13.3451 N.2     1  UNL1       -0.0380
     16 C          63.9953   87.1518   13.9742 C.2     1  UNL1        0.2168
     17 C          64.4675   88.4739   13.4460 C.3     1  UNL1        0.0997
     18 N          65.8537   93.6539   12.7419 N.3     1  UNL1       -0.2706
     19 C          65.0321   92.7488   11.8724 C.3     1  UNL1        0.0725
     20 C          64.5600   91.4267   12.4008 C.3     1  UNL1        0.0214
     21 C          64.9095   91.0097   13.7986 C.3     1  UNL1        0.0215
     22 C          65.7310   91.9147   14.6680 C.3     1  UNL1        0.0214
     23 C          66.2032   93.2368   14.1397 C.3     1  UNL1        0.0725
     24 C          66.3258   94.9760   12.2135 C.3     1  UNL1        0.1046
     25 C          66.3866   95.2137   10.7337 C.3     1  UNL1        0.1595
     26 C          67.8859   93.7031    9.2438 C.3     1  UNL1        0.1742
     27 O          67.6691   94.9863    9.9897 O.3     1  UNL1       -0.3496
     28 N          65.1037   83.2594   12.5169 N.pl3   1  UNL1       -0.3329
     29 H          65.8738   83.6052   13.0234 H       1  UNL1        0.1466
     30 C          65.0616   83.4041   11.0245 C.3     1  UNL1        0.1211
     31 C          63.7846   83.1445   10.2816 C.3     1  UNL1        0.1522
     32 O          63.3385   81.7353   10.0264 O.3     1  UNL1       -0.3783
     33 H          63.9843   81.1182   10.4046 H       1  UNL1        0.2109
     34 C          62.9538   84.2942    9.7938 C.ar    1  UNL1        0.0069
     35 C          62.8672   84.5871    8.3253 C.ar    1  UNL1        0.0013
     36 C          62.0363   85.7368    7.8375 C.ar    1  UNL1        0.0375
     37 C          61.2920   86.5936    8.8183 C.ar    1  UNL1        0.1491
     38 C          61.3786   86.3006   10.2868 C.ar    1  UNL1        0.0913
     39 CL         60.6343   87.1574   11.2676 Cl      1  UNL1       -0.0791
     40 C          62.2094   85.1509   10.7746 C.ar    1  UNL1        0.0126
     41 O          60.4611   87.7432    8.3305 O.3     1  UNL1       -0.4706
     42 C          59.0701   87.5015    7.8240 C.3     1  UNL1        0.2525
@<TRIPOS>BOND
     1    26    27    1
     2    27    25    1
     3    25    24    1
     4    24    18    1
     5    18    19    1
     6    19    20    1
     7    20    21    1
     8    21     8    1
     9     8     9    2
    10     9    10    1
    11    10    11    1
    12    10    12    2
    13    12    13    1
    14    13    14    2
    15    14     1    1
    16     1     2    1
    17     2    28    1
    18    28    30    1
    19    30    31    1
    20    31    32    1
    21    31    34    1
    22    34    35   ar
    23    35    36   ar
    24    36    37   ar
    25    37    41    1
    26    41    42    1
    27    37    38   ar
    28    38    39    1
    29    38    40   ar
    30     2     3    2
    31     3     4    1
    32     4     5    2
    33     5     6    1
    34     6     7    2
    35    14    15    1
    36    15    16    2
    37    16    17    1
    38    21    22    1
    39    22    23    1
    40    23    18    1
    41    17     8    1
    42    16    12    1
    43     6     1    1
    44    40    34   ar
    45    28    29    1
    46    32    33    1
@<TRIPOS>MOLECULE
*****
 42 46 0 0 0
SMALL
GASTEIGER

@<TRIPOS>ATOM
      1 C          71.1181   74.3784   15.5546 C.3     1  UNL1        0.2250
      2 C          72.0487   73.2043   15.6283 C.2     1  UNL1        0.0436
      3 C          71.6867   72.0117   16.4631 C.2     1  UNL1        0.0288
      4 C          70.3942   71.9933   17.2241 C.2     1  UNL1        0.0896
      5 N          69.4636   73.1674   17.1504 N.am    1  UNL1       -0.1770
      6 C          69.8256   74.3600   16.3157 C.2     1  UNL1        0.2627
      7 O          68.8950   75.5341   16.2419 O.2     1  UNL1       -0.2719
      8 C          72.5160   79.0807   11.3669 C.2     1  UNL1       -0.0363
      9 C          72.8112   79.8628   12.6122 C.2     1  UNL1       -0.0085
     10 C          72.6454   79.2211   13.9579 C.2     1  UNL1        0.0240
     11 C          72.9407   80.0034   15.2034 C.3     1  UNL1        0.0350
     12 C          72.1844   77.7973   14.0581 C.2     1  UNL1        0.2277
     13 N          71.9315   76.9048   15.2369 N.2     1  UNL1       -0.0345
     14 C          71.4800   75.5710   14.7199 C.2     1  UNL1        0.3649
     15 N          71.4538   75.6392   13.2217 N.2     1  UNL1       -0.0380
     16 C          71.8892   77.0151   12.8126 C.2     1  UNL1        0.2168
     17 C          72.0550   77.6569   11.4670 C.3     1  UNL1        0.0997
     18 N          73.0133   81.0059    7.3299 N.3     1  UNL1       -0.2706
     19 C          72.4769   81.8045    8.4808 C.3     1  UNL1        0.0725
     20 C          72.3112   81.1628    9.8264 C.3     1  UNL1        0.0214
     21 C          72.6818   79.7224   10.0212 C.3     1  UNL1        0.0215
     22 C          73.2182   78.9238    8.8704 C.3     1  UNL1        0.0214
     23 C          73.3839   79.5655    7.5247 C.3     1  UNL1        0.0725
     24 C          73.1791   81.6476    5.9843 C.3     1  UNL1        0.1046
     25 C          72.3017   81.2306    4.8414 C.3     1  UNL1        0.1595
     26 C          70.5362   79.3563    5.1874 C.3     1  UNL1        0.1742
     27 O          70.8841   80.8126    5.0978 O.3     1  UNL1       -0.3496
     28 N          73.3411   73.2227   14.8674 N.pl3   1  UNL1       -0.3329
     29 H          74.0235   73.9021   15.0725 H       1  UNL1        0.1466
     30 C          73.5940   72.2061   13.7938 C.3     1  UNL1        0.1211
     31 C          72.9852   70.8391   13.8970 C.3     1  UNL1        0.1522
     32 O          73.6330   69.7924   14.7542 O.3     1  UNL1       -0.3783
     33 H          74.4292   70.1607   15.1681 H       1  UNL1        0.2109
     34 C          71.7286   70.5188   13.1431 C.ar    1  UNL1        0.0069
     35 C          70.6896   69.6302   13.7600 C.ar    1  UNL1        0.0013
     36 C          69.4330   69.3100   13.0061 C.ar    1  UNL1        0.0375
     37 C          69.2155   69.8783   11.6351 C.ar    1  UNL1        0.1491
     38 C          70.2545   70.7670   11.0181 C.ar    1  UNL1        0.0913
     39 CL         70.0370   71.3353    9.6471 Cl      1  UNL1       -0.0791
     40 C          71.5111   71.0872   11.7721 C.ar    1  UNL1        0.0126
     41 O          67.9589   69.5581   10.8811 O.3     1  UNL1       -0.4706
     42 C          66.6307   70.0125   11.4096 C.3     1  UNL1        0.2525
@<TRIPOS>BOND
     1    26    27    1
     2    27    25    1
     3    25    24    1
     4    24    18    1
     5    18    19    1
     6    19    20    1
     7    20    21    1
     8    21     8    1
     9     8     9    2
    10     9    10    1
    11    10    11    1
    12    10    12    2
    13    12    13    1
    14    13    14    2
    15    14     1    1
    16     1     2    1
    17     2    28    1
    18    28    30    1
    19    30    31    1
    20    31    32    1
    21    31    34    1
    22    34    35   ar
    23    35    36   ar
    24    36    37   ar
    25    37    41    1
    26    41    42    1
    27    37    38   ar
    28    38    39    1
    29    38    40   ar
    30     2     3    2
    31     3     4    1
    32     4     5    2
    33     5     6    1
    34     6     7    2
    35    14    15    1
    36    15    16    2
    37    16    17    1
    38    21    22    1
    39    22    23    1
    40    23    18    1
    41    17     8    1
    42    16    12    1
    43     6     1    1
    44    40    34   ar
    45    28    29    1
    46    32    33    1
@<TRIPOS>MOLECULE
*****
 42 46 0 0 0
SMALL
GASTEIGER

@<TRIPOS>ATOM
      1 C          63.1114   84.4345   11.8254 C.3     1  UNL1        0.2250
      2 C          63.5395   84.5510   13.2583 C.2     1  UNL1        0.0436
      3 C          64.2808   83.4234   13.9135 C.2     1  UNL1        0.0288
      4 C          64.5939   82.1795   13.1360 C.2     1  UNL1        0.0896
      5 N          64.1657   82.0630   11.7031 N.am    1  UNL1       -0.1770
      6 C          63.4245   83.1906   11.0479 C.2     1  UNL1        0.2627
      7 O          62.9964   83.0741    9.6150 O.2     1  UNL1       -0.2719
      8 C          60.2150   89.0387    8.3591 C.2     1  UNL1       -0.0363
      9 C          59.6764   89.4605    9.6939 C.2     1  UNL1       -0.0085
     10 C          60.0490   88.6950   10.9290 C.2     1  UNL1        0.0240
     11 C          59.5103   89.1169   12.2639 C.3     1  UNL1        0.0350
     12 C          60.9602   87.5077   10.8291 C.2     1  UNL1        0.2277
     13 N          61.4987   86.5658   11.8649 N.2     1  UNL1       -0.0345
     14 C          62.3701   85.5619   11.1701 C.2     1  UNL1        0.3649
     15 N          62.3702   85.8833    9.7049 N.2     1  UNL1       -0.0380
     16 C          61.4988   87.0859    9.4941 C.2     1  UNL1        0.2168
     17 C          61.1262   87.8514    8.2592 C.3     1  UNL1        0.0997
     18 N          59.0973   91.3350    4.6540 N.3     1  UNL1       -0.2706
     19 C          60.5403   91.1772    5.0318 C.3     1  UNL1        0.0725
     20 C          60.9129   90.4118    6.2669 C.3     1  UNL1        0.0214
     21 C          59.8424   89.8041    7.1240 C.3     1  UNL1        0.0215
     22 C          58.3994   89.9619    6.7462 C.3     1  UNL1        0.0214
     23 C          58.0268   90.7274    5.5111 C.3     1  UNL1        0.0725
     24 C          58.7248   92.1005    3.4189 C.3     1  UNL1        0.1046
     25 C          59.7853   92.8010    2.6224 C.3     1  UNL1        0.1595
     26 C          60.6325   92.3700    0.2044 C.3     1  UNL1        0.1742
     27 O          59.6234   92.9665    1.1403 O.3     1  UNL1       -0.3496
     28 N          63.2264   85.7948   14.0359 N.pl3   1  UNL1       -0.3329
     29 H          62.3034   85.9735   14.3279 H       1  UNL1        0.1466
     30 C          64.3197   86.7665   14.3686 C.3     1  UNL1        0.1211
     31 C          63.9780   88.1254   14.9038 C.3     1  UNL1        0.1522
     32 O          63.3957   88.2652   16.2791 O.3     1  UNL1       -0.3783
     33 H          63.3058   87.3878   16.6829 H       1  UNL1        0.2109
     34 C          64.2186   89.3446   14.0638 C.ar    1  UNL1        0.0069
     35 C          65.2320   90.3635   14.4935 C.ar    1  UNL1        0.0013
     36 C          65.4726   91.5827   13.6534 C.ar    1  UNL1        0.0375
     37 C          64.6997   91.7830   12.3836 C.ar    1  UNL1        0.1491
     38 C          63.6863   90.7641   11.9539 C.ar    1  UNL1        0.0913
     39 CL         62.9134   90.9644   10.6840 Cl      1  UNL1       -0.0791
     40 C          63.4457   89.5449   12.7939 C.ar    1  UNL1        0.0126
     41 O          64.9403   93.0022   11.5435 O.3     1  UNL1       -0.4706
     42 C          66.0540   93.9449   11.8914 C.3     1  UNL1        0.2525
@<TRIPOS>BOND
     1    26    27    1
     2    27    25    1
     3    25    24    1
     4    24    18    1
     5    18    19    1
     6    19    20    1
     7    20    21    1
     8    21     8    1
     9     8     9    2
    10     9    10    1
    11    10    11    1
    12    10    12    2
    13    12    13    1
    14    13    14    2
    15    14     1    1
    16     1     2    1
    17     2    28    1
    18    28    30    1
    19    30    31    1
    20    31    32    1
    21    31    34    1
    22    34    35   ar
    23    35    36   ar
    24    36    37   ar
    25    37    41    1
    26    41    42    1
    27    37    38   ar
    28    38    39    1
    29    38    40   ar
    30     2     3    2
    31     3     4    1
    32     4     5    2
    33     5     6    1
    34     6     7    2
    35    14    15    1
    36    15    16    2
    37    16    17    1
    38    21    22    1
    39    22    23    1
    40    23    18    1
    41    17     8    1
    42    16    12    1
    43     6     1    1
    44    40    34   ar
    45    28    29    1
    46    32    33    1
@<TRIPOS>MOLECULE
*****
 42 46 0 0 0
SMALL
GASTEIGER

@<TRIPOS>ATOM
      1 C          62.9139   84.0638   11.5908 C.3     1  UNL1        0.2250
      2 C          62.7961   83.7940   13.0616 C.2     1  UNL1        0.0436
      3 C          63.4854   82.6055   13.6637 C.2     1  UNL1        0.0288
      4 C          64.2925   81.6868   12.7950 C.2     1  UNL1        0.0896
      5 N          64.4103   81.9566   11.3242 N.am    1  UNL1       -0.1770
      6 C          63.7209   83.1451   10.7221 C.2     1  UNL1        0.2627
      7 O          63.8387   83.4148    9.2513 O.2     1  UNL1       -0.2719
      8 C          60.1911   88.9216    8.3364 C.2     1  UNL1       -0.0363
      9 C          59.7492   89.3571    9.7019 C.2     1  UNL1       -0.0085
     10 C          60.1251   88.5457   10.9063 C.2     1  UNL1        0.0240
     11 C          59.6830   88.9813   12.2719 C.3     1  UNL1        0.0350
     12 C          60.9430   87.2987   10.7449 C.2     1  UNL1        0.2277
     13 N          61.4619   86.3031   11.7396 N.2     1  UNL1       -0.0345
     14 C          62.2246   85.2522   10.9887 C.2     1  UNL1        0.3649
     15 N          62.1771   85.5983    9.5299 N.2     1  UNL1       -0.0380
     16 C          61.3850   86.8632    9.3793 C.2     1  UNL1        0.2168
     17 C          61.0090   87.6746    8.1750 C.3     1  UNL1        0.0997
     18 N          59.0636   91.3558    4.7234 N.3     1  UNL1       -0.2706
     19 C          60.5084   91.1677    5.0800 C.3     1  UNL1        0.0725
     20 C          60.8842   90.3563    6.2843 C.3     1  UNL1        0.0214
     21 C          59.8152   89.7330    7.1320 C.3     1  UNL1        0.0215
     22 C          58.3705   89.9210    6.7755 C.3     1  UNL1        0.0214
     23 C          57.9946   90.7324    5.5711 C.3     1  UNL1        0.0725
     24 C          58.6877   92.1672    3.5191 C.3     1  UNL1        0.1046
     25 C          59.7537   92.6714    2.5920 C.3     1  UNL1        0.1595
     26 C          59.9156   94.5845    0.8417 C.3     1  UNL1        0.1742
     27 O          59.8374   94.1341    2.2703 O.3     1  UNL1       -0.3496
     28 N          61.9891   84.7126   13.9304 N.pl3   1  UNL1       -0.3329
     29 H          61.1589   85.1137   13.5851 H       1  UNL1        0.1466
     30 C          62.4468   85.0202   15.3254 C.3     1  UNL1        0.1211
     31 C          63.7256   85.7724   15.5464 C.3     1  UNL1        0.1522
     32 O          65.0246   85.0294   15.6487 O.3     1  UNL1       -0.3783
     33 H          64.8616   84.0782   15.5512 H       1  UNL1        0.2109
     34 C          63.7053   87.2675   15.6650 C.ar    1  UNL1        0.0069
     35 C          63.1190   87.9153   16.8842 C.ar    1  UNL1        0.0013
     36 C          63.0987   89.4105   17.0029 C.ar    1  UNL1        0.0375
     37 C          63.6649   90.2579   15.9022 C.ar    1  UNL1        0.1491
     38 C          64.2512   89.6101   14.6830 C.ar    1  UNL1        0.0913
     39 CL         64.8174   90.4576   13.5824 Cl      1  UNL1       -0.0791
     40 C          64.2715   88.1150   14.5644 C.ar    1  UNL1        0.0126
     41 O          63.6446   91.7531   16.0209 O.3     1  UNL1       -0.4706
     42 C          64.8101   92.4727   16.6322 C.3     1  UNL1        0.2525
@<TRIPOS>BOND
     1    26    27    1
     2    27    25    1
     3    25    24    1
     4    24    18    1
     5    18    19    1
     6    19    20    1
     7    20    21    1
     8    21     8    1
     9     8     9    2
    10     9    10    1
    11    10    11    1
    12    10    12    2
    13    12    13    1
    14    13    14    2
    15    14     1    1
    16     1     2    1
    17     2    28    1
    18    28    30    1
    19    30    31    1
    20    31    32    1
    21    31    34    1
    22    34    35   ar
    23    35    36   ar
    24    36    37   ar
    25    37    41    1
    26    41    42    1
    27    37    38   ar
    28    38    39    1
    29    38    40   ar
    30     2     3    2
    31     3     4    1
    32     4     5    2
    33     5     6    1
    34     6     7    2
    35    14    15    1
    36    15    16    2
    37    16    17    1
    38    21    22    1
    39    22    23    1
    40    23    18    1
    41    17     8    1
    42    16    12    1
    43     6     1    1
    44    40    34   ar
    45    28    29    1
    46    32    33    1
