@<TRIPOS>MOLECULE
*****
 21 23 0 0 0
SMALL
GASTEIGER

@<TRIPOS>ATOM
      1 C          65.7423   92.7109   11.7722 C.ar    1  UNL1        0.1378
      2 N          66.4274   92.5654   13.0986 N.ar    1  UNL1       -0.1770
      3 C          65.9216   91.5683   14.0986 C.ar    1  UNL1        0.3552
      4 O          66.6068   91.4228   15.4251 O.2     1  UNL1       -0.2440
      5 N          64.7307   90.7167   13.7722 N.ar    1  UNL1       -0.2573
      6 C          64.0456   90.8622   12.4458 C.ar    1  UNL1        0.0718
      7 C          62.8547   90.0106   12.1194 C.ar    1  UNL1        0.0291
      8 C          62.1696   90.1561   10.7930 C.ar    1  UNL1        0.0591
      9 CL         60.9786   89.3045   10.4665 Cl      1  UNL1       -0.0822
     10 C          62.6753   91.1532    9.7930 C.ar    1  UNL1        0.0116
     11 C          63.8662   92.0048   10.1194 C.ar    1  UNL1        0.0051
     12 C          64.5513   91.8593   11.4458 C.ar    1  UNL1        0.0480
     13 C          64.2250   89.7196   14.7722 C.ar    1  UNL1        0.0874
     14 C          63.5309   90.1906   16.0158 C.ar    1  UNL1        0.0208
     15 C          63.0251   89.1935   17.0158 C.ar    1  UNL1        0.0222
     16 C          63.2134   87.7254   16.7723 C.ar    1  UNL1        0.0990
     17 N          63.9076   87.2544   15.5287 N.ar    1  UNL1       -0.2408
     18 C          64.4133   88.2515   14.5287 C.ar    1  UNL1        0.1164
     19 C          67.2651   93.2951    9.7500 C.3     1  UNL1        0.1136
     20 N          66.2480   93.7080   10.7722 N.pl3   1  UNL1       -0.2896
     21 C          65.7366   95.1180   10.7945 C.3     1  UNL1        0.1136
@<TRIPOS>BOND
     1    19    20    1
     2    20    21    1
     3    20     1    1
     4     1     2   ar
     5     2     3   ar
     6     3     4    2
     7     3     5   ar
     8     5    13    1
     9    13    14   ar
    10    14    15   ar
    11    15    16   ar
    12    16    17   ar
    13    17    18   ar
    14     5     6   ar
    15     6     7   ar
    16     7     8   ar
    17     8     9    1
    18     8    10   ar
    19    10    11   ar
    20    11    12   ar
    21    12     1   ar
    22    18    13   ar
    23    12     6   ar
@<TRIPOS>MOLECULE
*****
 21 23 0 0 0
SMALL
GASTEIGER

@<TRIPOS>ATOM
      1 C          63.8740   89.8710   13.4377 C.ar    1  UNL1        0.1378
      2 N          63.2367   90.6096   12.2983 N.ar    1  UNL1       -0.1770
      3 C          62.5274   89.8510   11.2159 C.ar    1  UNL1        0.3552
      4 O          61.8902   90.5897   10.0764 O.2     1  UNL1       -0.2440
      5 N          62.4554   88.3539   11.2730 N.ar    1  UNL1       -0.2573
      6 C          63.0926   87.6152   12.4125 C.ar    1  UNL1        0.0718
      7 C          63.0206   86.1181   12.4696 C.ar    1  UNL1        0.0291
      8 C          63.6578   85.3795   13.6091 C.ar    1  UNL1        0.0591
      9 CL         63.5858   83.8823   13.6662 Cl      1  UNL1       -0.0822
     10 C          64.3671   86.1381   14.6914 C.ar    1  UNL1        0.0116
     11 C          64.4392   87.6352   14.6343 C.ar    1  UNL1        0.0051
     12 C          63.8019   88.3738   13.4948 C.ar    1  UNL1        0.0480
     13 C          61.7461   87.5953   10.1907 C.ar    1  UNL1        0.0874
     14 C          62.5229   86.7067    9.2650 C.ar    1  UNL1        0.0208
     15 C          61.8136   85.9482    8.1826 C.ar    1  UNL1        0.0222
     16 C          60.3275   86.0782    8.0260 C.ar    1  UNL1        0.0990
     17 N          59.5506   86.9668    8.9517 N.ar    1  UNL1       -0.2408
     18 C          60.2599   87.7253   10.0341 C.ar    1  UNL1        0.1164
     19 C          65.9860   91.1134   14.3011 C.3     1  UNL1        0.1136
     20 N          64.5832   90.6296   14.5200 N.pl3   1  UNL1       -0.2896
     21 C          63.8897   90.9044   15.8214 C.3     1  UNL1        0.1136
@<TRIPOS>BOND
     1    19    20    1
     2    20    21    1
     3    20     1    1
     4     1     2   ar
     5     2     3   ar
     6     3     4    2
     7     3     5   ar
     8     5    13    1
     9    13    14   ar
    10    14    15   ar
    11    15    16   ar
    12    16    17   ar
    13    17    18   ar
    14     5     6   ar
    15     6     7   ar
    16     7     8   ar
    17     8     9    1
    18     8    10   ar
    19    10    11   ar
    20    11    12   ar
    21    12     1   ar
    22    18    13   ar
    23    12     6   ar
@<TRIPOS>MOLECULE
*****
 21 23 0 0 0
SMALL
GASTEIGER

@<TRIPOS>ATOM
      1 C          63.5054   88.5307   13.0142 C.ar    1  UNL1        0.1378
      2 N          64.1485   87.6207   14.0183 N.ar    1  UNL1       -0.1770
      3 C          64.0229   86.1332   13.8712 C.ar    1  UNL1        0.3552
      4 O          64.6661   85.2233   14.8754 O.2     1  UNL1       -0.2440
      5 N          63.2542   85.5557   12.7199 N.ar    1  UNL1       -0.2573
      6 C          62.6110   86.4657   11.7157 C.ar    1  UNL1        0.0718
      7 C          61.8423   85.8882   10.5644 C.ar    1  UNL1        0.0291
      8 C          61.1991   86.7981    9.5603 C.ar    1  UNL1        0.0591
      9 CL         60.4303   86.2206    8.4090 Cl      1  UNL1       -0.0822
     10 C          61.3247   88.2856    9.7075 C.ar    1  UNL1        0.0116
     11 C          62.0935   88.8631   10.8587 C.ar    1  UNL1        0.0051
     12 C          62.7366   87.9532   11.8628 C.ar    1  UNL1        0.0480
     13 C          63.1286   84.0682   12.5728 C.ar    1  UNL1        0.0874
     14 C          63.8010   83.3683   11.4292 C.ar    1  UNL1        0.0208
     15 C          63.6754   81.8808   11.2820 C.ar    1  UNL1        0.0222
     16 C          62.8774   81.0933   12.2785 C.ar    1  UNL1        0.0990
     17 N          62.2049   81.7933   13.4222 N.ar    1  UNL1       -0.2408
     18 C          62.3305   83.2807   13.5693 C.ar    1  UNL1        0.1164
     19 C          63.5887   90.6432   14.5242 C.3     1  UNL1        0.1136
     20 N          63.6310   90.0181   13.1613 N.pl3   1  UNL1       -0.2896
     21 C          63.7990   90.8805   11.9455 C.3     1  UNL1        0.1136
@<TRIPOS>BOND
     1    19    20    1
     2    20    21    1
     3    20     1    1
     4     1     2   ar
     5     2     3   ar
     6     3     4    2
     7     3     5   ar
     8     5    13    1
     9    13    14   ar
    10    14    15   ar
    11    15    16   ar
    12    16    17   ar
    13    17    18   ar
    14     5     6   ar
    15     6     7   ar
    16     7     8   ar
    17     8     9    1
    18     8    10   ar
    19    10    11   ar
    20    11    12   ar
    21    12     1   ar
    22    18    13   ar
    23    12     6   ar
@<TRIPOS>MOLECULE
*****
 21 23 0 0 0
SMALL
GASTEIGER

@<TRIPOS>ATOM
      1 C          63.7838   85.7935   13.7352 C.ar    1  UNL1        0.1378
      2 N          63.4237   87.0616   13.0196 N.ar    1  UNL1       -0.1770
      3 C          62.8468   87.0042   11.6362 C.ar    1  UNL1        0.3552
      4 O          62.4867   88.2724   10.9206 O.2     1  UNL1       -0.2440
      5 N          62.6299   85.6787   10.9684 N.ar    1  UNL1       -0.2573
      6 C          62.9900   84.4105   11.6840 C.ar    1  UNL1        0.0718
      7 C          62.7731   83.0850   11.0162 C.ar    1  UNL1        0.0291
      8 C          63.1332   81.8169   11.7318 C.ar    1  UNL1        0.0591
      9 CL         62.9164   80.4913   11.0640 Cl      1  UNL1       -0.0822
     10 C          63.7102   81.8743   13.1152 C.ar    1  UNL1        0.0116
     11 C          63.9271   83.1997   13.7830 C.ar    1  UNL1        0.0051
     12 C          63.5670   84.4679   13.0674 C.ar    1  UNL1        0.0480
     13 C          62.0529   85.6213    9.5850 C.ar    1  UNL1        0.0874
     14 C          62.8753   85.0849    8.4510 C.ar    1  UNL1        0.0208
     15 C          62.2984   85.0275    7.0676 C.ar    1  UNL1        0.0222
     16 C          60.8990   85.5066    6.8182 C.ar    1  UNL1        0.0990
     17 N          60.0765   86.0431    7.9521 N.ar    1  UNL1       -0.2408
     18 C          60.6535   86.1004    9.3356 C.ar    1  UNL1        0.1164
     19 C          63.4516   85.8383   16.3115 C.3     1  UNL1        0.1136
     20 N          64.3608   85.8508   15.1186 N.pl3   1  UNL1       -0.2896
     21 C          65.8471   85.9207   15.3091 C.3     1  UNL1        0.1136
@<TRIPOS>BOND
     1    19    20    1
     2    20    21    1
     3    20     1    1
     4     1     2   ar
     5     2     3   ar
     6     3     4    2
     7     3     5   ar
     8     5    13    1
     9    13    14   ar
    10    14    15   ar
    11    15    16   ar
    12    16    17   ar
    13    17    18   ar
    14     5     6   ar
    15     6     7   ar
    16     7     8   ar
    17     8     9    1
    18     8    10   ar
    19    10    11   ar
    20    11    12   ar
    21    12     1   ar
    22    18    13   ar
    23    12     6   ar
@<TRIPOS>MOLECULE
*****
 21 23 0 0 0
SMALL
GASTEIGER

@<TRIPOS>ATOM
      1 C          62.1888   89.9229   12.5167 C.ar    1  UNL1        0.1378
      2 N          62.3621   89.5375   13.9559 N.ar    1  UNL1       -0.1770
      3 C          63.5235   90.0715   14.7407 C.ar    1  UNL1        0.3552
      4 O          63.6968   89.6860   16.1800 O.2     1  UNL1       -0.2440
      5 N          64.5116   90.9909   14.0864 N.ar    1  UNL1       -0.2573
      6 C          64.3383   91.3764   12.6471 C.ar    1  UNL1        0.0718
      7 C          65.3264   92.2959   11.9927 C.ar    1  UNL1        0.0291
      8 C          65.1531   92.6813   10.5535 C.ar    1  UNL1        0.0591
      9 CL         66.1412   93.6009    9.8991 Cl      1  UNL1       -0.0822
     10 C          63.9917   92.1473    9.7687 C.ar    1  UNL1        0.0116
     11 C          63.0036   91.2279   10.4230 C.ar    1  UNL1        0.0051
     12 C          63.1769   90.8424   11.8622 C.ar    1  UNL1        0.0480
     13 C          65.6730   91.5249   14.8712 C.ar    1  UNL1        0.0874
     14 C          67.0721   91.1265   14.5054 C.ar    1  UNL1        0.0208
     15 C          68.2335   91.6605   15.2902 C.ar    1  UNL1        0.0222
     16 C          67.9958   92.5929   16.4409 C.ar    1  UNL1        0.0990
     17 N          66.5967   92.9914   16.8067 N.ar    1  UNL1       -0.2408
     18 C          65.4353   92.4574   16.0219 C.ar    1  UNL1        0.1164
     19 C          59.7283   90.1384   11.7109 C.3     1  UNL1        0.1136
     20 N          61.0274   89.3889   11.7318 N.pl3   1  UNL1       -0.2896
     21 C          61.1652   88.1054   10.9678 C.3     1  UNL1        0.1136
@<TRIPOS>BOND
     1    19    20    1
     2    20    21    1
     3    20     1    1
     4     1     2   ar
     5     2     3   ar
     6     3     4    2
     7     3     5   ar
     8     5    13    1
     9    13    14   ar
    10    14    15   ar
    11    15    16   ar
    12    16    17   ar
    13    17    18   ar
    14     5     6   ar
    15     6     7   ar
    16     7     8   ar
    17     8     9    1
    18     8    10   ar
    19    10    11   ar
    20    11    12   ar
    21    12     1   ar
    22    18    13   ar
    23    12     6   ar
@<TRIPOS>MOLECULE
*****
 21 23 0 0 0
SMALL
GASTEIGER

@<TRIPOS>ATOM
      1 C          63.4836   84.7100   12.4310 C.ar    1  UNL1        0.1378
      2 N          64.1218   84.7795   13.7867 N.ar    1  UNL1       -0.1770
      3 C          64.2596   86.1004   14.4839 C.ar    1  UNL1        0.3552
      4 O          64.8979   86.1699   15.8397 O.2     1  UNL1       -0.2440
      5 N          63.7593   87.3518   13.8255 N.ar    1  UNL1       -0.2573
      6 C          63.1211   87.2824   12.4698 C.ar    1  UNL1        0.0718
      7 C          62.6207   88.5338   11.8114 C.ar    1  UNL1        0.0291
      8 C          61.9825   88.4643   10.4558 C.ar    1  UNL1        0.0591
      9 CL         61.4821   89.7158    9.7973 Cl      1  UNL1       -0.0822
     10 C          61.8447   87.1434    9.7585 C.ar    1  UNL1        0.0116
     11 C          62.3450   85.8920   10.4169 C.ar    1  UNL1        0.0051
     12 C          62.9832   85.9615   11.7725 C.ar    1  UNL1        0.0480
     13 C          63.8971   88.6728   14.5228 C.ar    1  UNL1        0.0874
     14 C          64.7670   89.7440   13.9349 C.ar    1  UNL1        0.0208
     15 C          64.9048   91.0649   14.6321 C.ar    1  UNL1        0.0222
     16 C          64.1728   91.3146   15.9173 C.ar    1  UNL1        0.0990
     17 N          63.3028   90.2433   16.5053 N.ar    1  UNL1       -0.2408
     18 C          63.1650   88.9224   15.8081 C.ar    1  UNL1        0.1164
     19 C          62.3392   82.3874   12.2168 C.3     1  UNL1        0.1136
     20 N          63.3458   83.3891   11.7337 N.pl3   1  UNL1       -0.2896
     21 C          64.2146   83.0698   10.5533 C.3     1  UNL1        0.1136
@<TRIPOS>BOND
     1    19    20    1
     2    20    21    1
     3    20     1    1
     4     1     2   ar
     5     2     3   ar
     6     3     4    2
     7     3     5   ar
     8     5    13    1
     9    13    14   ar
    10    14    15   ar
    11    15    16   ar
    12    16    17   ar
    13    17    18   ar
    14     5     6   ar
    15     6     7   ar
    16     7     8   ar
    17     8     9    1
    18     8    10   ar
    19    10    11   ar
    20    11    12   ar
    21    12     1   ar
    22    18    13   ar
    23    12     6   ar
@<TRIPOS>MOLECULE
*****
 21 23 0 0 0
SMALL
GASTEIGER

@<TRIPOS>ATOM
      1 C          61.9850   88.7412   11.2329 C.ar    1  UNL1        0.1378
      2 N          62.7714   88.1924   12.3863 N.ar    1  UNL1       -0.1770
      3 C          63.1103   86.7320   12.4357 C.ar    1  UNL1        0.3552
      4 O          63.8967   86.1832   13.5892 O.2     1  UNL1       -0.2440
      5 N          62.6628   85.8205   11.3317 N.ar    1  UNL1       -0.2573
      6 C          61.8764   86.3693   10.1783 C.ar    1  UNL1        0.0718
      7 C          61.4289   85.4578    9.0743 C.ar    1  UNL1        0.0291
      8 C          60.6425   86.0066    7.9209 C.ar    1  UNL1        0.0591
      9 CL         60.1950   85.0951    6.8169 Cl      1  UNL1       -0.0822
     10 C          60.3036   87.4670    7.8715 C.ar    1  UNL1        0.0116
     11 C          60.7511   88.3785    8.9755 C.ar    1  UNL1        0.0051
     12 C          61.5375   87.8297   10.1289 C.ar    1  UNL1        0.0480
     13 C          63.0017   84.3601   11.3811 C.ar    1  UNL1        0.0874
     14 C          62.3230   83.4659   12.3759 C.ar    1  UNL1        0.0208
     15 C          62.6618   82.0055   12.4253 C.ar    1  UNL1        0.0222
     16 C          63.6795   81.4393   11.4799 C.ar    1  UNL1        0.0990
     17 N          64.3583   82.3335   10.4851 N.ar    1  UNL1       -0.2408
     18 C          64.0194   83.7939   10.4357 C.ar    1  UNL1        0.1164
     19 C          60.2685   90.6648   11.5543 C.3     1  UNL1        0.1136
     20 N          61.6462   90.2016   11.1836 N.pl3   1  UNL1       -0.2896
     21 C          62.6850   91.1988   10.7634 C.3     1  UNL1        0.1136
@<TRIPOS>BOND
     1    19    20    1
     2    20    21    1
     3    20     1    1
     4     1     2   ar
     5     2     3   ar
     6     3     4    2
     7     3     5   ar
     8     5    13    1
     9    13    14   ar
    10    14    15   ar
    11    15    16   ar
    12    16    17   ar
    13    17    18   ar
    14     5     6   ar
    15     6     7   ar
    16     7     8   ar
    17     8     9    1
    18     8    10   ar
    19    10    11   ar
    20    11    12   ar
    21    12     1   ar
    22    18    13   ar
    23    12     6   ar
@<TRIPOS>MOLECULE
*****
 21 23 0 0 0
SMALL
GASTEIGER

@<TRIPOS>ATOM
      1 C          70.2371   71.4194   13.4367 C.ar    1  UNL1        0.1378
      2 N          69.8602   72.7911   13.9126 N.ar    1  UNL1       -0.1770
      3 C          70.3310   73.2760   15.2516 C.ar    1  UNL1        0.3552
      4 O          69.9541   74.6477   15.7275 O.2     1  UNL1       -0.2440
      5 N          71.1787   72.3893   16.1148 N.ar    1  UNL1       -0.2573
      6 C          71.5557   71.0176   15.6389 C.ar    1  UNL1        0.0718
      7 C          72.4034   70.1309   16.5021 C.ar    1  UNL1        0.0291
      8 C          72.7802   68.7593   16.0262 C.ar    1  UNL1        0.0591
      9 CL         73.6280   67.8725   16.8894 Cl      1  UNL1       -0.0822
     10 C          72.3094   68.2743   14.6872 C.ar    1  UNL1        0.0116
     11 C          71.4617   69.1610   13.8240 C.ar    1  UNL1        0.0051
     12 C          71.0848   70.5326   14.2999 C.ar    1  UNL1        0.0480
     13 C          71.6496   72.8743   17.4539 C.ar    1  UNL1        0.0874
     14 C          70.9150   72.4717   18.6981 C.ar    1  UNL1        0.0208
     15 C          71.3858   72.9566   20.0372 C.ar    1  UNL1        0.0222
     16 C          72.5913   73.8442   20.1320 C.ar    1  UNL1        0.0990
     17 N          73.3260   74.2469   18.8877 N.ar    1  UNL1       -0.2408
     18 C          72.8551   73.7619   17.5487 C.ar    1  UNL1        0.1164
     19 C          70.6129   71.1562   10.8794 C.3     1  UNL1        0.1136
     20 N          69.7662   70.9345   12.0976 N.pl3   1  UNL1       -0.2896
     21 C          68.4486   70.2277   11.9767 C.3     1  UNL1        0.1136
@<TRIPOS>BOND
     1    19    20    1
     2    20    21    1
     3    20     1    1
     4     1     2   ar
     5     2     3   ar
     6     3     4    2
     7     3     5   ar
     8     5    13    1
     9    13    14   ar
    10    14    15   ar
    11    15    16   ar
    12    16    17   ar
    13    17    18   ar
    14     5     6   ar
    15     6     7   ar
    16     7     8   ar
    17     8     9    1
    18     8    10   ar
    19    10    11   ar
    20    11    12   ar
    21    12     1   ar
    22    18    13   ar
    23    12     6   ar
@<TRIPOS>MOLECULE
*****
 21 23 0 0 0
SMALL
GASTEIGER

@<TRIPOS>ATOM
      1 C          63.0038   94.0957    0.6261 C.ar    1  UNL1        0.1378
      2 N          61.9116   93.9148    1.6381 N.ar    1  UNL1       -0.1770
      3 C          60.4843   93.8051    1.1898 C.ar    1  UNL1        0.3552
      4 O          59.3921   93.6241    2.2019 O.2     1  UNL1       -0.2440
      5 N          60.1494   93.8763   -0.2706 N.ar    1  UNL1       -0.2573
      6 C          61.2416   94.0573   -1.2827 C.ar    1  UNL1        0.0718
      7 C          60.9067   94.1285   -2.7430 C.ar    1  UNL1        0.0291
      8 C          61.9989   94.3095   -3.7550 C.ar    1  UNL1        0.0591
      9 CL         61.6640   94.3807   -5.2155 Cl      1  UNL1       -0.0822
     10 C          63.4261   94.4192   -3.3067 C.ar    1  UNL1        0.0116
     11 C          63.7611   94.3479   -1.8463 C.ar    1  UNL1        0.0051
     12 C          62.6689   94.1670   -0.8343 C.ar    1  UNL1        0.0480
     13 C          58.7222   93.7666   -0.7189 C.ar    1  UNL1        0.0874
     14 C          57.9090   95.0069   -0.9430 C.ar    1  UNL1        0.0208
     15 C          56.4817   94.8972   -1.3914 C.ar    1  UNL1        0.0222
     16 C          55.8677   93.5471   -1.6156 C.ar    1  UNL1        0.0990
     17 N          56.6809   92.3067   -1.3915 N.ar    1  UNL1       -0.2408
     18 C          58.1081   92.4164   -0.9431 C.ar    1  UNL1        0.1164
     19 C          64.9142   95.4606    1.7386 C.3     1  UNL1        0.1136
     20 N          64.4310   94.2055    1.0745 N.pl3   1  UNL1       -0.2896
     21 C          65.3751   93.0599    0.8587 C.3     1  UNL1        0.1136
@<TRIPOS>BOND
     1    19    20    1
     2    20    21    1
     3    20     1    1
     4     1     2   ar
     5     2     3   ar
     6     3     4    2
     7     3     5   ar
     8     5    13    1
     9    13    14   ar
    10    14    15   ar
    11    15    16   ar
    12    16    17   ar
    13    17    18   ar
    14     5     6   ar
    15     6     7   ar
    16     7     8   ar
    17     8     9    1
    18     8    10   ar
    19    10    11   ar
    20    11    12   ar
    21    12     1   ar
    22    18    13   ar
    23    12     6   ar
