@<TRIPOS>MOLECULE
*****
 27 29 0 0 0
SMALL
GASTEIGER

@<TRIPOS>ATOM
      1 N          64.4340   87.7711   14.6330 N.am    1  UNL1       -0.2969
      2 C          63.8928   89.1682   14.7050 C.2     1  UNL1        0.2461
      3 O          62.7589   89.4864   15.6340 O.2     1  UNL1       -0.2701
      4 H          65.1782   87.5623   14.0232 H       1  UNL1        0.1501
      5 C          64.4854   90.2472   13.8479 C.ar    1  UNL1        0.0534
      6 C          63.8298   90.6200   12.5513 C.ar    1  UNL1        0.0045
      7 C          64.4224   91.6990   11.6943 C.ar    1  UNL1        0.0001
      8 C          65.6707   92.4052   12.1338 C.ar    1  UNL1        0.0001
      9 C          66.3263   92.0323   13.4304 C.ar    1  UNL1        0.0001
     10 C          65.7337   90.9533   14.2874 C.ar    1  UNL1        0.0045
     11 C          66.2633   93.4841   11.2767 C.ar    1  UNL1        0.0031
     12 C          67.0948   93.1212   10.0821 C.ar    1  UNL1        0.0207
     13 C          67.6874   94.2002    9.2251 C.ar    1  UNL1        0.0989
     14 N          67.4486   95.6421    9.5625 N.ar    1  UNL1       -0.2423
     15 C          66.6171   96.0050   10.7571 C.ar    1  UNL1        0.0989
     16 C          66.0245   94.9260   11.6142 C.ar    1  UNL1        0.0207
     17 C          63.8414   86.6921   15.4901 C.3     1  UNL1        0.1167
     18 C          63.9549   83.5635   13.0511 C.ar    1  UNL1        0.1383
     19 C          62.9963   82.6351   13.7361 C.ar    1  UNL1        0.0369
     20 C          62.3195   83.0591   15.0058 C.ar    1  UNL1        0.0028
     21 C          62.6011   84.4114   15.5904 C.ar    1  UNL1       -0.0024
     22 C          63.5597   85.3397   14.9054 C.ar    1  UNL1        0.0005
     23 C          64.2366   84.9158   13.6357 C.ar    1  UNL1        0.0343
     24 O          64.6318   83.1395   11.7814 O.3     1  UNL1       -0.4755
     25 C          63.9137   83.2656   10.4705 C.3     1  UNL1        0.2054
     26 C          63.1142   85.0706    8.7814 C.3     1  UNL1        0.0040
     27 C          63.1152   84.4989   10.1682 C.3     1  UNL1        0.0473
@<TRIPOS>BOND
     1    26    27    1
     2    27    25    1
     3    25    24    1
     4    24    18    1
     5    18    19   ar
     6    19    20   ar
     7    20    21   ar
     8    21    22   ar
     9    22    17    1
    10    17     1    1
    11     1     2   am
    12     2     3    2
    13     2     5    1
    14     5     6   ar
    15     6     7   ar
    16     7     8   ar
    17     8    11    1
    18    11    12   ar
    19    12    13   ar
    20    13    14   ar
    21    14    15   ar
    22    15    16   ar
    23     8     9   ar
    24     9    10   ar
    25    22    23   ar
    26    23    18   ar
    27    10     5   ar
    28    16    11   ar
    29     1     4    1
@<TRIPOS>MOLECULE
*****
 27 29 0 0 0
SMALL
GASTEIGER

@<TRIPOS>ATOM
      1 N          64.3954   87.6135   14.5389 N.am    1  UNL1       -0.2969
      2 C          63.9507   89.0277   14.7681 C.2     1  UNL1        0.2461
      3 O          62.9504   89.3345   15.8429 O.2     1  UNL1       -0.2701
      4 H          65.0519   87.4121   13.8335 H       1  UNL1        0.1501
      5 C          64.5063   90.1350   13.9224 C.ar    1  UNL1        0.0534
      6 C          65.7389   90.8682   14.3619 C.ar    1  UNL1        0.0045
      7 C          66.2945   91.9754   13.5162 C.ar    1  UNL1        0.0001
      8 C          65.6175   92.3495   12.2309 C.ar    1  UNL1        0.0001
      9 C          64.3850   91.6163   11.7914 C.ar    1  UNL1        0.0001
     10 C          63.8294   90.5090   12.6372 C.ar    1  UNL1        0.0045
     11 C          66.1731   93.4568   11.3853 C.ar    1  UNL1        0.0031
     12 C          65.9918   94.8851   11.8060 C.ar    1  UNL1        0.0207
     13 C          66.5474   95.9924   10.9603 C.ar    1  UNL1        0.0989
     14 N          67.2844   95.6713    9.6938 N.ar    1  UNL1       -0.2423
     15 C          67.4657   94.2430    9.2731 C.ar    1  UNL1        0.0989
     16 C          66.9101   93.1357   10.1189 C.ar    1  UNL1        0.0207
     17 C          63.8397   86.5063   15.3846 C.3     1  UNL1        0.1167
     18 C          63.9450   83.4275   12.8825 C.ar    1  UNL1        0.1383
     19 C          62.9887   82.4855   13.5518 C.ar    1  UNL1        0.0369
     20 C          62.3160   82.8837   14.8320 C.ar    1  UNL1        0.0028
     21 C          62.5997   84.2239   15.4430 C.ar    1  UNL1       -0.0024
     22 C          63.5560   85.1659   14.7737 C.ar    1  UNL1        0.0005
     23 C          64.2287   84.7677   13.4935 C.ar    1  UNL1        0.0343
     24 O          64.6177   83.0293   11.6023 O.3     1  UNL1       -0.4755
     25 C          63.9169   83.2332   10.2919 C.3     1  UNL1        0.2054
     26 C          63.1437   85.0671    8.6218 C.3     1  UNL1        0.0040
     27 C          63.1986   84.5212   10.0179 C.3     1  UNL1        0.0473
@<TRIPOS>BOND
     1    26    27    1
     2    27    25    1
     3    25    24    1
     4    24    18    1
     5    18    19   ar
     6    19    20   ar
     7    20    21   ar
     8    21    22   ar
     9    22    17    1
    10    17     1    1
    11     1     2   am
    12     2     3    2
    13     2     5    1
    14     5     6   ar
    15     6     7   ar
    16     7     8   ar
    17     8    11    1
    18    11    12   ar
    19    12    13   ar
    20    13    14   ar
    21    14    15   ar
    22    15    16   ar
    23     8     9   ar
    24     9    10   ar
    25    22    23   ar
    26    23    18   ar
    27    10     5   ar
    28    16    11   ar
    29     1     4    1
@<TRIPOS>MOLECULE
*****
 27 29 0 0 0
SMALL
GASTEIGER

@<TRIPOS>ATOM
      1 N          61.4921   90.2526   10.0995 N.am    1  UNL1       -0.2969
      2 C          61.7729   89.8866   11.5268 C.2     1  UNL1        0.2461
      3 O          60.8326   88.9833   12.2684 O.2     1  UNL1       -0.2701
      4 H          62.1092   90.8454    9.6128 H       1  UNL1        0.1501
      5 C          62.9940   90.4239   12.2126 C.ar    1  UNL1        0.0534
      6 C          63.3996   89.8857   13.5526 C.ar    1  UNL1        0.0045
      7 C          64.6207   90.4229   14.2383 C.ar    1  UNL1        0.0001
      8 C          65.4362   91.4985   13.5840 C.ar    1  UNL1        0.0001
      9 C          65.0306   92.0368   12.2439 C.ar    1  UNL1        0.0001
     10 C          63.8094   91.4995   11.5582 C.ar    1  UNL1        0.0045
     11 C          66.6573   92.0358   14.2697 C.ar    1  UNL1        0.0031
     12 C          66.5260   92.7602   15.5766 C.ar    1  UNL1        0.0207
     13 C          67.7471   93.2975   16.2623 C.ar    1  UNL1        0.0989
     14 N          69.0996   93.1104   15.6411 N.ar    1  UNL1       -0.2423
     15 C          69.2309   92.3860   14.3342 C.ar    1  UNL1        0.0989
     16 C          68.0097   91.8487   13.6485 C.ar    1  UNL1        0.0207
     17 C          60.2710   89.7153    9.4138 C.3     1  UNL1        0.1167
     18 C          61.5321   86.1061    8.3491 C.ar    1  UNL1        0.1383
     19 C          60.3438   85.6052    7.5830 C.ar    1  UNL1        0.0369
     20 C          59.1312   86.4744    7.4271 C.ar    1  UNL1        0.0028
     21 C          59.1069   87.8444    8.0373 C.ar    1  UNL1       -0.0024
     22 C          60.2952   88.3452    8.8035 C.ar    1  UNL1        0.0005
     23 C          61.5078   87.4761    8.9594 C.ar    1  UNL1        0.0343
     24 O          62.7447   85.2370    8.5050 O.3     1  UNL1       -0.4755
     25 C          63.1056   84.6880    9.8534 C.3     1  UNL1        0.2054
     26 C          64.3765   82.9422   11.2981 C.3     1  UNL1        0.0040
     27 C          63.8961   83.4176    9.9589 C.3     1  UNL1        0.0473
@<TRIPOS>BOND
     1    26    27    1
     2    27    25    1
     3    25    24    1
     4    24    18    1
     5    18    19   ar
     6    19    20   ar
     7    20    21   ar
     8    21    22   ar
     9    22    17    1
    10    17     1    1
    11     1     2   am
    12     2     3    2
    13     2     5    1
    14     5     6   ar
    15     6     7   ar
    16     7     8   ar
    17     8    11    1
    18    11    12   ar
    19    12    13   ar
    20    13    14   ar
    21    14    15   ar
    22    15    16   ar
    23     8     9   ar
    24     9    10   ar
    25    22    23   ar
    26    23    18   ar
    27    10     5   ar
    28    16    11   ar
    29     1     4    1
@<TRIPOS>MOLECULE
*****
 27 29 0 0 0
SMALL
GASTEIGER

@<TRIPOS>ATOM
      1 N          62.5387   88.4955   11.2070 N.am    1  UNL1       -0.2969
      2 C          62.9767   89.4975   12.2338 C.2     1  UNL1        0.2461
      3 O          62.6530   89.2778   13.6819 O.2     1  UNL1       -0.2701
      4 H          62.7512   88.6397   10.2566 H       1  UNL1        0.1501
      5 C          63.7383   90.7191   11.8125 C.ar    1  UNL1        0.0534
      6 C          63.5298   91.2982   10.4446 C.ar    1  UNL1        0.0045
      7 C          64.2914   92.5199   10.0233 C.ar    1  UNL1        0.0001
      8 C          65.2615   93.1624   10.9700 C.ar    1  UNL1        0.0001
      9 C          65.4700   92.5833   12.3378 C.ar    1  UNL1        0.0001
     10 C          64.7084   91.3616   12.7591 C.ar    1  UNL1        0.0045
     11 C          66.0231   94.3840   10.5487 C.ar    1  UNL1        0.0031
     12 C          66.8555   94.3558    9.3011 C.ar    1  UNL1        0.0207
     13 C          67.6172   95.5774    8.8799 C.ar    1  UNL1        0.0989
     14 N          67.5464   96.8274    9.7061 N.ar    1  UNL1       -0.2423
     15 C          66.7140   96.8557   10.9536 C.ar    1  UNL1        0.0989
     16 C          65.9523   95.6339   11.3749 C.ar    1  UNL1        0.0207
     17 C          61.7771   87.2738   11.6283 C.3     1  UNL1        0.1167
     18 C          63.2669   83.7014   12.5049 C.ar    1  UNL1        0.1383
     19 C          63.6148   83.1958   11.1362 C.ar    1  UNL1        0.0369
     20 C          63.3502   84.0495    9.9316 C.ar    1  UNL1        0.0028
     21 C          62.7376   85.4088   10.0956 C.ar    1  UNL1       -0.0024
     22 C          62.3897   85.9144   11.4642 C.ar    1  UNL1        0.0005
     23 C          62.6543   85.0607   12.6689 C.ar    1  UNL1        0.0343
     24 O          63.5315   82.8477   13.7095 O.3     1  UNL1       -0.4755
     25 C          62.3855   82.3145   14.5172 C.3     1  UNL1        0.2054
     26 C          62.3819   80.1222   13.1228 C.3     1  UNL1        0.0040
     27 C          61.7244   81.0272   14.1223 C.3     1  UNL1        0.0473
@<TRIPOS>BOND
     1    26    27    1
     2    27    25    1
     3    25    24    1
     4    24    18    1
     5    18    19   ar
     6    19    20   ar
     7    20    21   ar
     8    21    22   ar
     9    22    17    1
    10    17     1    1
    11     1     2   am
    12     2     3    2
    13     2     5    1
    14     5     6   ar
    15     6     7   ar
    16     7     8   ar
    17     8    11    1
    18    11    12   ar
    19    12    13   ar
    20    13    14   ar
    21    14    15   ar
    22    15    16   ar
    23     8     9   ar
    24     9    10   ar
    25    22    23   ar
    26    23    18   ar
    27    10     5   ar
    28    16    11   ar
    29     1     4    1
@<TRIPOS>MOLECULE
*****
 27 29 0 0 0
SMALL
GASTEIGER

@<TRIPOS>ATOM
      1 N          60.0188   90.0845    6.0100 N.am    1  UNL1       -0.2969
      2 C          59.4613   91.1571    5.1218 C.2     1  UNL1        0.2461
      3 O          58.0327   91.5885    5.2729 O.2     1  UNL1       -0.2701
      4 H          60.9565   89.8013    5.9108 H       1  UNL1        0.1501
      5 C          60.3325   91.7983    4.0827 C.ar    1  UNL1        0.0534
      6 C          59.7728   92.8655    3.1894 C.ar    1  UNL1        0.0045
      7 C          60.6440   93.5066    2.1502 C.ar    1  UNL1        0.0001
      8 C          62.0749   93.0806    2.0043 C.ar    1  UNL1        0.0001
      9 C          62.6345   92.0134    2.8975 C.ar    1  UNL1        0.0001
     10 C          61.7632   91.3723    3.9368 C.ar    1  UNL1        0.0045
     11 C          62.9460   93.7218    0.9651 C.ar    1  UNL1        0.0031
     12 C          62.4755   93.8120   -0.4563 C.ar    1  UNL1        0.0207
     13 C          63.3466   94.4531   -1.4955 C.ar    1  UNL1        0.0989
     14 N          64.6884   95.0042   -1.1133 N.ar    1  UNL1       -0.2423
     15 C          65.1589   94.9141    0.3081 C.ar    1  UNL1        0.0989
     16 C          64.2877   94.2728    1.3473 C.ar    1  UNL1        0.0207
     17 C          59.1477   89.4433    7.0492 C.3     1  UNL1        0.1167
     18 C          60.8420   88.2516   10.4343 C.ar    1  UNL1        0.1383
     19 C          60.9727   86.7787   10.1827 C.ar    1  UNL1        0.0369
     20 C          60.4950   86.1939    8.8866 C.ar    1  UNL1        0.0028
     21 C          59.8867   87.0821    7.8421 C.ar    1  UNL1       -0.0024
     22 C          59.7560   88.5550    8.0937 C.ar    1  UNL1        0.0005
     23 C          60.2337   89.1398    9.3898 C.ar    1  UNL1        0.0343
     24 O          61.3197   88.8364   11.7304 O.3     1  UNL1       -0.4755
     25 C          62.7400   89.2990   11.8663 C.3     1  UNL1        0.2054
     26 C          63.1780   91.2381   10.1935 C.3     1  UNL1        0.0040
     27 C          63.0899   90.7337   11.6035 C.3     1  UNL1        0.0473
@<TRIPOS>BOND
     1    26    27    1
     2    27    25    1
     3    25    24    1
     4    24    18    1
     5    18    19   ar
     6    19    20   ar
     7    20    21   ar
     8    21    22   ar
     9    22    17    1
    10    17     1    1
    11     1     2   am
    12     2     3    2
    13     2     5    1
    14     5     6   ar
    15     6     7   ar
    16     7     8   ar
    17     8    11    1
    18    11    12   ar
    19    12    13   ar
    20    13    14   ar
    21    14    15   ar
    22    15    16   ar
    23     8     9   ar
    24     9    10   ar
    25    22    23   ar
    26    23    18   ar
    27    10     5   ar
    28    16    11   ar
    29     1     4    1
@<TRIPOS>MOLECULE
*****
 27 29 0 0 0
SMALL
GASTEIGER

@<TRIPOS>ATOM
      1 N          63.2808   88.2234   11.9740 N.am    1  UNL1       -0.2969
      2 C          63.2100   89.5297   12.7080 C.2     1  UNL1        0.2461
      3 O          62.4124   89.6363   13.9740 O.2     1  UNL1       -0.2701
      4 H          63.8043   88.1534   11.1432 H       1  UNL1        0.1501
      5 C          63.9367   90.7292   12.1762 C.ar    1  UNL1        0.0534
      6 C          63.6807   91.2012   10.7755 C.ar    1  UNL1        0.0045
      7 C          64.4074   92.4007   10.2437 C.ar    1  UNL1        0.0001
      8 C          65.3902   93.1284   11.1124 C.ar    1  UNL1        0.0001
      9 C          65.6462   92.6565   12.5130 C.ar    1  UNL1        0.0001
     10 C          64.9194   91.4568   13.0449 C.ar    1  UNL1        0.0045
     11 C          66.1169   94.3279   10.5805 C.ar    1  UNL1        0.0031
     12 C          65.9767   95.6547   11.2661 C.ar    1  UNL1        0.0207
     13 C          66.7034   96.8542   10.7342 C.ar    1  UNL1        0.0989
     14 N          67.5704   96.7270    9.5167 N.ar    1  UNL1       -0.2423
     15 C          67.7106   95.4002    8.8311 C.ar    1  UNL1        0.0989
     16 C          66.9838   94.2007    9.3631 C.ar    1  UNL1        0.0207
     17 C          62.5541   87.0239   12.5059 C.3     1  UNL1        0.1167
     18 C          63.5757   83.6331   14.2972 C.ar    1  UNL1        0.1383
     19 C          64.6879   84.1058   15.1857 C.ar    1  UNL1        0.0369
     20 C          65.0888   85.5512   15.1810 C.ar    1  UNL1        0.0028
     21 C          64.3776   86.5239   14.2878 C.ar    1  UNL1       -0.0024
     22 C          63.2654   86.0512   13.3992 C.ar    1  UNL1        0.0005
     23 C          62.8645   84.6058   13.4040 C.ar    1  UNL1        0.0343
     24 O          63.1748   82.1877   14.3019 O.3     1  UNL1       -0.4755
     25 C          62.3817   81.6256   13.1596 C.3     1  UNL1        0.2054
     26 C          63.1669   81.5774   10.6835 C.3     1  UNL1        0.0040
     27 C          63.0822   80.9266   12.0323 C.3     1  UNL1        0.0473
@<TRIPOS>BOND
     1    26    27    1
     2    27    25    1
     3    25    24    1
     4    24    18    1
     5    18    19   ar
     6    19    20   ar
     7    20    21   ar
     8    21    22   ar
     9    22    17    1
    10    17     1    1
    11     1     2   am
    12     2     3    2
    13     2     5    1
    14     5     6   ar
    15     6     7   ar
    16     7     8   ar
    17     8    11    1
    18    11    12   ar
    19    12    13   ar
    20    13    14   ar
    21    14    15   ar
    22    15    16   ar
    23     8     9   ar
    24     9    10   ar
    25    22    23   ar
    26    23    18   ar
    27    10     5   ar
    28    16    11   ar
    29     1     4    1
@<TRIPOS>MOLECULE
*****
 27 29 0 0 0
SMALL
GASTEIGER

@<TRIPOS>ATOM
      1 N          59.8172   89.2870    7.2584 N.am    1  UNL1       -0.2969
      2 C          59.4118   87.9378    7.7737 C.2     1  UNL1        0.2461
      3 O          58.1237   87.3176    7.3196 O.2     1  UNL1       -0.2701
      4 H          60.6626   89.6941    7.5564 H       1  UNL1        0.1501
      5 C          60.2945   87.2089    8.7429 C.ar    1  UNL1        0.0534
      6 C          60.1978   87.5008   10.2111 C.ar    1  UNL1        0.0045
      7 C          61.0805   86.7719   11.1804 C.ar    1  UNL1        0.0001
      8 C          62.0599   85.7511   10.6815 C.ar    1  UNL1        0.0001
      9 C          62.1566   85.4592    9.2133 C.ar    1  UNL1        0.0001
     10 C          61.2738   86.1882    8.2441 C.ar    1  UNL1        0.0045
     11 C          62.9426   85.0222   11.6508 C.ar    1  UNL1        0.0031
     12 C          63.2685   85.6392   12.9786 C.ar    1  UNL1        0.0207
     13 C          64.1512   84.9103   13.9479 C.ar    1  UNL1        0.0989
     14 N          64.7080   83.5643   13.5894 N.ar    1  UNL1       -0.2423
     15 C          64.3820   82.9473   12.2615 C.ar    1  UNL1        0.0989
     16 C          63.4993   83.6763   11.2922 C.ar    1  UNL1        0.0207
     17 C          58.9345   90.0159    6.2891 C.3     1  UNL1        0.1167
     18 C          61.6175   91.6613    3.8716 C.ar    1  UNL1        0.1383
     19 C          60.7583   92.6258    3.1091 C.ar    1  UNL1        0.0369
     20 C          59.2911   92.7204    3.4066 C.ar    1  UNL1        0.0028
     21 C          58.6832   91.8504    4.4666 C.ar    1  UNL1       -0.0024
     22 C          59.5424   90.8859    5.2291 C.ar    1  UNL1        0.0005
     23 C          61.0096   90.7913    4.9315 C.ar    1  UNL1        0.0343
     24 O          63.0847   91.5667    3.5740 O.3     1  UNL1       -0.4755
     25 C          63.6190   92.0726    2.2670 C.3     1  UNL1        0.2054
     26 C          63.3872   94.2296    0.8373 C.3     1  UNL1        0.0040
     27 C          63.8723   93.5389    2.0774 C.3     1  UNL1        0.0473
@<TRIPOS>BOND
     1    26    27    1
     2    27    25    1
     3    25    24    1
     4    24    18    1
     5    18    19   ar
     6    19    20   ar
     7    20    21   ar
     8    21    22   ar
     9    22    17    1
    10    17     1    1
    11     1     2   am
    12     2     3    2
    13     2     5    1
    14     5     6   ar
    15     6     7   ar
    16     7     8   ar
    17     8    11    1
    18    11    12   ar
    19    12    13   ar
    20    13    14   ar
    21    14    15   ar
    22    15    16   ar
    23     8     9   ar
    24     9    10   ar
    25    22    23   ar
    26    23    18   ar
    27    10     5   ar
    28    16    11   ar
    29     1     4    1
@<TRIPOS>MOLECULE
*****
 27 29 0 0 0
SMALL
GASTEIGER

@<TRIPOS>ATOM
      1 N          60.1303   89.9854    6.2287 N.am    1  UNL1       -0.2969
      2 C          59.4883   90.9439    5.2699 C.2     1  UNL1        0.2461
      3 O          58.0168   91.2211    5.3591 O.2     1  UNL1       -0.2701
      4 H          61.0961   89.8034    6.1702 H       1  UNL1        0.1501
      5 C          60.3177   91.6250    4.2220 C.ar    1  UNL1        0.0534
      6 C          59.7254   92.7292    3.3974 C.ar    1  UNL1        0.0045
      7 C          60.5548   93.4103    2.3495 C.ar    1  UNL1        0.0001
      8 C          61.9765   92.9874    2.1263 C.ar    1  UNL1        0.0001
      9 C          62.5688   91.8832    2.9509 C.ar    1  UNL1        0.0001
     10 C          61.7393   91.2021    3.9988 C.ar    1  UNL1        0.0045
     11 C          62.8059   93.6686    1.0784 C.ar    1  UNL1        0.0031
     12 C          62.1716   94.1203   -0.2036 C.ar    1  UNL1        0.0207
     13 C          63.0010   94.8015   -1.2515 C.ar    1  UNL1        0.0989
     14 N          64.4648   95.0309   -1.0174 N.ar    1  UNL1       -0.2423
     15 C          65.0991   94.5792    0.2646 C.ar    1  UNL1        0.0989
     16 C          64.2696   93.8980    1.3125 C.ar    1  UNL1        0.0207
     17 C          59.3010   89.3042    7.2765 C.3     1  UNL1        0.1167
     18 C          60.9518   86.9748   10.0331 C.ar    1  UNL1        0.1383
     19 C          61.1998   87.9665   11.1307 C.ar    1  UNL1        0.0369
     20 C          60.8149   89.4041   10.9437 C.ar    1  UNL1        0.0028
     21 C          60.1819   89.8500    9.6590 C.ar    1  UNL1       -0.0024
     22 C          59.9339   88.8583    8.5613 C.ar    1  UNL1        0.0005
     23 C          60.3189   87.4207    8.7484 C.ar    1  UNL1        0.0343
     24 O          61.3368   85.5371   10.2201 O.3     1  UNL1       -0.4755
     25 C          62.4707   85.1770   11.1336 C.3     1  UNL1        0.2054
     26 C          63.9794   83.3071   10.1450 C.3     1  UNL1        0.0040
     27 C          62.9863   83.7689   11.1701 C.3     1  UNL1        0.0473
@<TRIPOS>BOND
     1    26    27    1
     2    27    25    1
     3    25    24    1
     4    24    18    1
     5    18    19   ar
     6    19    20   ar
     7    20    21   ar
     8    21    22   ar
     9    22    17    1
    10    17     1    1
    11     1     2   am
    12     2     3    2
    13     2     5    1
    14     5     6   ar
    15     6     7   ar
    16     7     8   ar
    17     8    11    1
    18    11    12   ar
    19    12    13   ar
    20    13    14   ar
    21    14    15   ar
    22    15    16   ar
    23     8     9   ar
    24     9    10   ar
    25    22    23   ar
    26    23    18   ar
    27    10     5   ar
    28    16    11   ar
    29     1     4    1
@<TRIPOS>MOLECULE
*****
 27 29 0 0 0
SMALL
GASTEIGER

@<TRIPOS>ATOM
      1 N          61.1867   89.1872   12.2959 N.am    1  UNL1       -0.2969
      2 C          62.0921   90.1018   11.5252 C.2     1  UNL1        0.2461
      3 O          61.7604   90.4664   10.1085 O.2     1  UNL1       -0.2701
      4 H          61.4044   88.9479   13.2258 H       1  UNL1        0.1501
      5 C          63.3290   90.6518   12.1712 C.ar    1  UNL1        0.0534
      6 C          64.1446   91.6935   11.4643 C.ar    1  UNL1        0.0045
      7 C          65.3815   92.2435   12.1103 C.ar    1  UNL1        0.0001
      8 C          65.8030   91.7518   13.4633 C.ar    1  UNL1        0.0001
      9 C          64.9875   90.7102   14.1703 C.ar    1  UNL1        0.0001
     10 C          63.7504   90.1602   13.5242 C.ar    1  UNL1        0.0045
     11 C          67.0400   92.3018   14.1094 C.ar    1  UNL1        0.0031
     12 C          66.9238   93.2849   15.2364 C.ar    1  UNL1        0.0207
     13 C          68.1607   93.8349   15.8824 C.ar    1  UNL1        0.0989
     14 N          69.5140   93.4018   15.4014 N.ar    1  UNL1       -0.2423
     15 C          69.6302   92.4188   14.2744 C.ar    1  UNL1        0.0989
     16 C          68.3931   91.8688   13.6284 C.ar    1  UNL1        0.0207
     17 C          59.9498   88.6372   11.6499 C.3     1  UNL1        0.1167
     18 C          59.4798   88.0485    7.7534 C.ar    1  UNL1        0.1383
     19 C          60.1921   86.7404    7.5764 C.ar    1  UNL1        0.0369
     20 C          60.8237   86.0645    8.7572 C.ar    1  UNL1        0.0028
     21 C          60.7429   86.6967   10.1151 C.ar    1  UNL1       -0.0024
     22 C          60.0306   88.0049   10.2920 C.ar    1  UNL1        0.0005
     23 C          59.3990   88.6807    9.1112 C.ar    1  UNL1        0.0343
     24 O          58.8483   88.7244    6.5726 O.3     1  UNL1       -0.4755
     25 C          59.4350   89.9952    6.0334 C.3     1  UNL1        0.2054
     26 C          58.9811   92.2913    4.9057 C.3     1  UNL1        0.0040
     27 C          58.6454   90.8394    5.0775 C.3     1  UNL1        0.0473
@<TRIPOS>BOND
     1    26    27    1
     2    27    25    1
     3    25    24    1
     4    24    18    1
     5    18    19   ar
     6    19    20   ar
     7    20    21   ar
     8    21    22   ar
     9    22    17    1
    10    17     1    1
    11     1     2   am
    12     2     3    2
    13     2     5    1
    14     5     6   ar
    15     6     7   ar
    16     7     8   ar
    17     8    11    1
    18    11    12   ar
    19    12    13   ar
    20    13    14   ar
    21    14    15   ar
    22    15    16   ar
    23     8     9   ar
    24     9    10   ar
    25    22    23   ar
    26    23    18   ar
    27    10     5   ar
    28    16    11   ar
    29     1     4    1
