@<TRIPOS>MOLECULE
*****
 28 31 0 0 0
SMALL
GASTEIGER

@<TRIPOS>ATOM
      1 C          63.0086   87.7139   12.4461 C.2     1  UNL1        0.3279
      2 N          62.1606   88.0155   11.2462 N.2     1  UNL1       -0.0020
      3 C          61.5050   86.8976   10.4909 C.2     1  UNL1        0.3338
      4 C          61.6975   85.4780   10.9356 C.2     1  UNL1        0.0879
      5 C          62.5455   85.1764   12.1355 C.2     1  UNL1        0.0161
      6 C          62.9143   83.8858   12.8051 C.2     1  UNL1       -0.0100
      7 C          62.4765   82.5155   12.3802 C.3     1  UNL1        0.0320
      8 C          63.7978   84.2062   13.9743 C.2     1  UNL1        0.0509
      9 C          64.3986   83.2124   14.9238 C.3     1  UNL1        0.0513
     10 N          63.9751   85.6947   14.0272 N.2     1  UNL1       -0.2602
     11 C          63.2011   86.2943   12.8907 C.3     1  UNL1        0.2298
     12 N          60.6570   87.1992    9.2909 N.am    1  UNL1       -0.1406
     13 C          60.2654   86.2242    8.2204 C.3     1  UNL1        0.2108
     14 C          59.4181   86.9512    7.2187 C.3     1  UNL1        0.0634
     15 C          59.2858   88.3756    7.6702 C.3     1  UNL1        0.1170
     16 C          60.0515   88.5288    8.9509 C.2     1  UNL1        0.3135
     17 O          60.1878   89.7902    9.7510 O.2     1  UNL1       -0.2468
     18 N          63.6642   88.8319   13.2014 N.pl3   1  UNL1       -0.2166
     19 H          64.3643   88.6337   13.8646 H       1  UNL1        0.2923
     20 C          63.2530   90.2517   12.9462 C.3     1  UNL1        0.2258
     21 C          65.3060   91.2318   14.9019 C.3     1  UNL1        0.0308
     22 C          65.3011   91.7529   13.4953 C.ar    1  UNL1       -0.0223
     23 C          66.3227   92.7641   13.0665 C.ar    1  UNL1       -0.0045
     24 C          66.3178   93.2852   11.6600 C.ar    1  UNL1       -0.0007
     25 C          65.2913   92.7952   10.6822 C.ar    1  UNL1       -0.0045
     26 C          64.2697   91.7840   11.1109 C.ar    1  UNL1       -0.0223
     27 C          63.2432   91.2939   10.1331 C.3     1  UNL1        0.0308
     28 C          64.2746   91.2628   12.5175 C.ar    1  UNL1        0.0162
@<TRIPOS>BOND
     1    21    22    1
     2    22    23   ar
     3    23    24   ar
     4    24    25   ar
     5    25    26   ar
     6    26    27    1
     7    26    28   ar
     8    28    20    1
     9    20    18    1
    10    18     1    1
    11     1     2    2
    12     2     3    1
    13     3    12    1
    14    12    13    1
    15    13    14    1
    16    14    15    1
    17    15    16    1
    18    16    17    2
    19     3     4    2
    20     4     5    1
    21     5     6    2
    22     6     7    1
    23     6     8    1
    24     8     9    1
    25     8    10    2
    26    10    11    1
    27    28    22   ar
    28    11     1    1
    29    16    12   am
    30    11     5    1
    31    18    19    1
@<TRIPOS>MOLECULE
*****
 28 31 0 0 0
SMALL
GASTEIGER

@<TRIPOS>ATOM
      1 C          63.0029   87.7243   12.4266 C.2     1  UNL1        0.3279
      2 N          62.1530   88.0237   11.2274 N.2     1  UNL1       -0.0020
      3 C          61.4973   86.9043   10.4746 C.2     1  UNL1        0.3338
      4 C          61.6915   85.4854   10.9208 C.2     1  UNL1        0.0879
      5 C          62.5414   85.1860   12.1200 C.2     1  UNL1        0.0161
      6 C          62.9121   83.8966   12.7908 C.2     1  UNL1       -0.0100
      7 C          62.4748   82.5254   12.3683 C.3     1  UNL1        0.0320
      8 C          63.7969   84.2192   13.9584 C.2     1  UNL1        0.0509
      9 C          64.3997   83.2271   14.9084 C.3     1  UNL1        0.0513
     10 N          63.9731   85.7080   14.0091 N.2     1  UNL1       -0.2602
     11 C          63.1971   86.3055   12.8729 C.3     1  UNL1        0.2298
     12 N          60.6474   87.2036    9.2753 N.am    1  UNL1       -0.1406
     13 C          60.2548   86.2268    8.2069 C.3     1  UNL1        0.2108
     14 C          59.4056   86.9518    7.2053 C.3     1  UNL1        0.0634
     15 C          59.2735   88.3769    7.6547 C.3     1  UNL1        0.1170
     16 C          60.0409   88.5324    8.9340 C.2     1  UNL1        0.3135
     17 O          60.1779   89.7952    9.7320 O.2     1  UNL1       -0.2468
     18 N          63.6586   88.8438   13.1796 N.pl3   1  UNL1       -0.2166
     19 H          64.3568   88.6468   13.8451 H       1  UNL1        0.2923
     20 C          63.2505   90.2634   12.9185 C.3     1  UNL1        0.2258
     21 C          63.2561   91.3200   10.1107 C.3     1  UNL1        0.0308
     22 C          64.2796   91.8021   11.0955 C.ar    1  UNL1       -0.0223
     23 C          65.3059   92.8127   10.6765 C.ar    1  UNL1       -0.0045
     24 C          66.3294   93.2948   11.6613 C.ar    1  UNL1       -0.0007
     25 C          66.3266   92.7665   13.0652 C.ar    1  UNL1       -0.0045
     26 C          65.3003   91.7561   13.4843 C.ar    1  UNL1       -0.0223
     27 C          65.2975   91.2278   14.8882 C.3     1  UNL1        0.0308
     28 C          64.2767   91.2739   12.4994 C.ar    1  UNL1        0.0162
@<TRIPOS>BOND
     1    21    22    1
     2    22    23   ar
     3    23    24   ar
     4    24    25   ar
     5    25    26   ar
     6    26    27    1
     7    26    28   ar
     8    28    20    1
     9    20    18    1
    10    18     1    1
    11     1     2    2
    12     2     3    1
    13     3    12    1
    14    12    13    1
    15    13    14    1
    16    14    15    1
    17    15    16    1
    18    16    17    2
    19     3     4    2
    20     4     5    1
    21     5     6    2
    22     6     7    1
    23     6     8    1
    24     8     9    1
    25     8    10    2
    26    10    11    1
    27    28    22   ar
    28    11     1    1
    29    16    12   am
    30    11     5    1
    31    18    19    1
@<TRIPOS>MOLECULE
*****
 28 31 0 0 0
SMALL
GASTEIGER

@<TRIPOS>ATOM
      1 C          62.2578   88.2297   11.6634 C.2     1  UNL1        0.3279
      2 N          62.8091   86.9886   12.3003 N.2     1  UNL1       -0.0020
      3 C          62.5763   85.6513   11.6621 C.2     1  UNL1        0.3338
      4 C          61.7923   85.5551   10.3869 C.2     1  UNL1        0.0879
      5 C          61.2409   86.7962    9.7500 C.2     1  UNL1        0.0161
      6 C          60.4358   87.0116    8.5029 C.2     1  UNL1       -0.0100
      7 C          59.9762   85.9439    7.5548 C.3     1  UNL1        0.0320
      8 C          60.1709   88.4820    8.3704 C.2     1  UNL1        0.0509
      9 C          59.3998   89.1430    7.2664 C.3     1  UNL1        0.0513
     10 N          60.8123   89.1755    9.5355 N.2     1  UNL1       -0.2602
     11 C          61.4737   88.1335   10.3882 C.3     1  UNL1        0.2298
     12 N          63.1277   84.4102   12.2990 N.am    1  UNL1       -0.1406
     13 C          64.0002   83.3892   11.6308 C.3     1  UNL1        0.2108
     14 C          64.3150   82.3202   12.6348 C.3     1  UNL1        0.0634
     15 C          63.6371   82.6804   13.9235 C.3     1  UNL1        0.1170
     16 C          62.9033   83.9721   13.7160 C.2     1  UNL1        0.3135
     17 O          62.0882   84.6982   14.7448 O.2     1  UNL1       -0.2468
     18 N          62.4905   89.5671   12.3016 N.pl3   1  UNL1       -0.2166
     19 H          61.9688   89.8322   13.0933 H       1  UNL1        0.2923
     20 C          63.5181   90.5006   11.7335 C.3     1  UNL1        0.2258
     21 C          65.1087   92.8274   10.7060 C.3     1  UNL1        0.0308
     22 C          65.2509   92.3943   12.1350 C.ar    1  UNL1       -0.0223
     23 C          66.1884   93.1245   13.0504 C.ar    1  UNL1       -0.0045
     24 C          66.3305   92.6914   14.4794 C.ar    1  UNL1       -0.0007
     25 C          65.5352   91.5280   14.9932 C.ar    1  UNL1       -0.0045
     26 C          64.5977   90.7977   14.0779 C.ar    1  UNL1       -0.0223
     27 C          63.8024   89.6343   14.5916 C.3     1  UNL1        0.0308
     28 C          64.4555   91.2309   12.6488 C.ar    1  UNL1        0.0162
@<TRIPOS>BOND
     1    21    22    1
     2    22    23   ar
     3    23    24   ar
     4    24    25   ar
     5    25    26   ar
     6    26    27    1
     7    26    28   ar
     8    28    20    1
     9    20    18    1
    10    18     1    1
    11     1     2    2
    12     2     3    1
    13     3    12    1
    14    12    13    1
    15    13    14    1
    16    14    15    1
    17    15    16    1
    18    16    17    2
    19     3     4    2
    20     4     5    1
    21     5     6    2
    22     6     7    1
    23     6     8    1
    24     8     9    1
    25     8    10    2
    26    10    11    1
    27    28    22   ar
    28    11     1    1
    29    16    12   am
    30    11     5    1
    31    18    19    1
@<TRIPOS>MOLECULE
*****
 28 31 0 0 0
SMALL
GASTEIGER

@<TRIPOS>ATOM
      1 C          62.2589   88.2260   11.6647 C.2     1  UNL1        0.3279
      2 N          62.8105   86.9842   12.3000 N.2     1  UNL1       -0.0020
      3 C          62.5779   85.6477   11.6600 C.2     1  UNL1        0.3338
      4 C          61.7937   85.5530   10.3848 C.2     1  UNL1        0.0879
      5 C          61.2422   86.7948    9.7496 C.2     1  UNL1        0.0161
      6 C          60.4369   87.0118    8.5028 C.2     1  UNL1       -0.0100
      7 C          59.9774   85.9453    7.5533 C.3     1  UNL1        0.0320
      8 C          60.1718   88.4824    8.3722 C.2     1  UNL1        0.0509
      9 C          59.4006   89.1447    7.2692 C.3     1  UNL1        0.0513
     10 N          60.8132   89.1744    9.5383 N.2     1  UNL1       -0.2602
     11 C          61.4748   88.1313   10.3895 C.3     1  UNL1        0.2298
     12 N          63.1294   84.4057   12.2953 N.am    1  UNL1       -0.1406
     13 C          64.0011   83.3853   11.6254 C.3     1  UNL1        0.2108
     14 C          64.3165   82.3151   12.6280 C.3     1  UNL1        0.0634
     15 C          63.6398   82.6742   13.9177 C.3     1  UNL1        0.1170
     16 C          62.9061   83.9663   13.7120 C.2     1  UNL1        0.3135
     17 O          62.0921   84.6916   14.7422 O.2     1  UNL1       -0.2468
     18 N          62.4915   89.5626   12.3047 N.pl3   1  UNL1       -0.2166
     19 H          61.9748   89.8237   13.1010 H       1  UNL1        0.2923
     20 C          63.5114   90.5013   11.7314 C.3     1  UNL1        0.2258
     21 C          63.8179   89.6252   14.5842 C.3     1  UNL1        0.0308
     22 C          64.6117   90.7882   14.0674 C.ar    1  UNL1       -0.0223
     23 C          65.5589   91.5132   14.9770 C.ar    1  UNL1       -0.0045
     24 C          66.3528   92.6762   14.4602 C.ar    1  UNL1       -0.0007
     25 C          66.1996   93.1143   13.0338 C.ar    1  UNL1       -0.0045
     26 C          65.2525   92.3893   12.1242 C.ar    1  UNL1       -0.0223
     27 C          65.0992   92.8274   10.6978 C.3     1  UNL1        0.0308
     28 C          64.4585   91.2262   12.6410 C.ar    1  UNL1        0.0162
@<TRIPOS>BOND
     1    21    22    1
     2    22    23   ar
     3    23    24   ar
     4    24    25   ar
     5    25    26   ar
     6    26    27    1
     7    26    28   ar
     8    28    20    1
     9    20    18    1
    10    18     1    1
    11     1     2    2
    12     2     3    1
    13     3    12    1
    14    12    13    1
    15    13    14    1
    16    14    15    1
    17    15    16    1
    18    16    17    2
    19     3     4    2
    20     4     5    1
    21     5     6    2
    22     6     7    1
    23     6     8    1
    24     8     9    1
    25     8    10    2
    26    10    11    1
    27    28    22   ar
    28    11     1    1
    29    16    12   am
    30    11     5    1
    31    18    19    1
@<TRIPOS>MOLECULE
*****
 28 31 0 0 0
SMALL
GASTEIGER

@<TRIPOS>ATOM
      1 C          63.1761   86.7804   12.8718 C.2     1  UNL1        0.3279
      2 N          62.3622   86.3649   11.6824 N.2     1  UNL1       -0.0020
      3 C          61.9672   87.3810   10.6521 C.2     1  UNL1        0.3338
      4 C          62.3862   88.8124   10.8112 C.2     1  UNL1        0.0879
      5 C          63.2001   89.2279   12.0007 C.2     1  UNL1        0.0161
      6 C          63.7551   90.5559   12.4228 C.2     1  UNL1       -0.0100
      7 C          63.5994   91.8518   11.6835 C.3     1  UNL1        0.0320
      8 C          64.4931   90.3607   13.7140 C.2     1  UNL1        0.0509
      9 C          65.2050   91.4271   14.4927 C.3     1  UNL1        0.0513
     10 N          64.3942   88.9120   14.0899 N.2     1  UNL1       -0.2602
     11 C          63.5951   88.2118   13.0310 C.3     1  UNL1        0.2298
     12 N          61.1532   86.9656    9.4625 N.am    1  UNL1       -0.1406
     13 C          59.7707   87.4432    9.1299 C.3     1  UNL1        0.2108
     14 C          59.3419   86.7724    7.8586 C.3     1  UNL1        0.0634
     15 C          60.4594   85.8802    7.4055 C.3     1  UNL1        0.1170
     16 C          61.5788   85.9996    8.3968 C.2     1  UNL1        0.3135
     17 O          62.8930   85.2794    8.3335 O.2     1  UNL1       -0.2468
     18 N          63.5711   85.7643   13.9022 N.pl3   1  UNL1       -0.2166
     19 H          63.3523   85.9140   14.8504 H       1  UNL1        0.2923
     20 C          64.2995   84.5201   13.4880 C.3     1  UNL1        0.2258
     21 C          62.5830   83.4936   15.7241 C.3     1  UNL1        0.0308
     22 C          62.6919   82.7175   14.4452 C.ar    1  UNL1       -0.0223
     23 C          61.9425   81.4281   14.2842 C.ar    1  UNL1       -0.0045
     24 C          62.0513   80.6520   13.0053 C.ar    1  UNL1       -0.0007
     25 C          62.9095   81.1652   11.8872 C.ar    1  UNL1       -0.0045
     26 C          63.6589   82.4546   12.0481 C.ar    1  UNL1       -0.0223
     27 C          64.5171   82.9678   10.9300 C.3     1  UNL1        0.0308
     28 C          63.5501   83.2308   13.3271 C.ar    1  UNL1        0.0162
@<TRIPOS>BOND
     1    21    22    1
     2    22    23   ar
     3    23    24   ar
     4    24    25   ar
     5    25    26   ar
     6    26    27    1
     7    26    28   ar
     8    28    20    1
     9    20    18    1
    10    18     1    1
    11     1     2    2
    12     2     3    1
    13     3    12    1
    14    12    13    1
    15    13    14    1
    16    14    15    1
    17    15    16    1
    18    16    17    2
    19     3     4    2
    20     4     5    1
    21     5     6    2
    22     6     7    1
    23     6     8    1
    24     8     9    1
    25     8    10    2
    26    10    11    1
    27    28    22   ar
    28    11     1    1
    29    16    12   am
    30    11     5    1
    31    18    19    1
@<TRIPOS>MOLECULE
*****
 28 31 0 0 0
SMALL
GASTEIGER

@<TRIPOS>ATOM
      1 C          63.8129   87.3588   13.8672 C.2     1  UNL1        0.3279
      2 N          64.5286   88.4395   14.6220 N.2     1  UNL1       -0.0020
      3 C          64.5488   89.8407   14.0872 C.2     1  UNL1        0.3338
      4 C          63.8532   90.1613   12.7975 C.2     1  UNL1        0.0879
      5 C          63.1374   89.0807   12.0426 C.2     1  UNL1        0.0161
      6 C          62.3687   89.0963   10.7547 C.2     1  UNL1       -0.0100
      7 C          62.1361   90.2934    9.8813 C.3     1  UNL1        0.0320
      8 C          61.8734   87.7047   10.4935 C.2     1  UNL1        0.0509
      9 C          61.0585   87.2659    9.3130 C.3     1  UNL1        0.0513
     10 N          62.3360   86.8290   11.6200 N.2     1  UNL1       -0.2602
     11 C          63.1173   87.6794   12.5775 C.3     1  UNL1        0.2298
     12 N          65.2645   90.9214   14.8421 N.am    1  UNL1       -0.1406
     13 C          66.6715   91.3819   14.6008 C.3     1  UNL1        0.2108
     14 C          66.9755   92.4764   15.5804 C.3     1  UNL1        0.0634
     15 C          65.7563   92.6925   16.4271 C.3     1  UNL1        0.1170
     16 C          64.6989   91.7314   15.9708 C.2     1  UNL1        0.3135
     17 O          63.3182   91.6029   16.5428 O.2     1  UNL1       -0.2468
     18 N          63.7927   85.9575   14.4020 N.pl3   1  UNL1       -0.2166
     19 H          63.4165   85.7762   15.2935 H       1  UNL1        0.2923
     20 C          64.3458   84.8324   13.5784 C.3     1  UNL1        0.2258
     21 C          62.5829   83.8573   15.8013 C.3     1  UNL1        0.0308
     22 C          62.6754   83.0803   14.5216 C.ar    1  UNL1       -0.0223
     23 C          61.8864   81.8156   14.3534 C.ar    1  UNL1       -0.0045
     24 C          61.9789   81.0386   13.0737 C.ar    1  UNL1       -0.0007
     25 C          62.8604   81.5261   11.9622 C.ar    1  UNL1       -0.0045
     26 C          63.6493   82.7907   12.1305 C.ar    1  UNL1       -0.0223
     27 C          64.5308   83.2783   11.0190 C.3     1  UNL1        0.0308
     28 C          63.5568   83.5678   13.4102 C.ar    1  UNL1        0.0162
@<TRIPOS>BOND
     1    21    22    1
     2    22    23   ar
     3    23    24   ar
     4    24    25   ar
     5    25    26   ar
     6    26    27    1
     7    26    28   ar
     8    28    20    1
     9    20    18    1
    10    18     1    1
    11     1     2    2
    12     2     3    1
    13     3    12    1
    14    12    13    1
    15    13    14    1
    16    14    15    1
    17    15    16    1
    18    16    17    2
    19     3     4    2
    20     4     5    1
    21     5     6    2
    22     6     7    1
    23     6     8    1
    24     8     9    1
    25     8    10    2
    26    10    11    1
    27    28    22   ar
    28    11     1    1
    29    16    12   am
    30    11     5    1
    31    18    19    1
@<TRIPOS>MOLECULE
*****
 28 31 0 0 0
SMALL
GASTEIGER

@<TRIPOS>ATOM
      1 C          62.2543   87.0126   11.9029 C.2     1  UNL1        0.3279
      2 N          63.1237   88.1115   12.4380 N.2     1  UNL1       -0.0020
      3 C          63.1420   89.4501   11.7615 C.2     1  UNL1        0.3338
      4 C          62.2908   89.6898   10.5499 C.2     1  UNL1        0.0879
      5 C          61.4214   88.5909   10.0147 C.2     1  UNL1        0.0161
      6 C          60.4823   88.5327    8.8465 C.2     1  UNL1       -0.0100
      7 C          60.1928   89.6525    7.8915 C.3     1  UNL1        0.0320
      8 C          59.8836   87.1581    8.8010 C.2     1  UNL1        0.0509
      9 C          58.8903   86.6620    7.7925 C.3     1  UNL1        0.0513
     10 N          60.4527   86.3667    9.9411 N.2     1  UNL1       -0.2602
     11 C          61.4031   87.2523   10.6912 C.3     1  UNL1        0.2298
     12 N          64.0114   90.5491   12.2967 N.am    1  UNL1       -0.1406
     13 C          64.4777   91.7545   11.5353 C.3     1  UNL1        0.2108
     14 C          65.3216   92.5860   12.4552 C.3     1  UNL1        0.0634
     15 C          65.3770   91.8946   13.7852 C.3     1  UNL1        0.1170
     16 C          64.5672   90.6357   13.6872 C.2     1  UNL1        0.3135
     17 O          64.3512   89.6386   14.7868 O.2     1  UNL1       -0.2468
     18 N          62.2360   85.6739   12.5794 N.pl3   1  UNL1       -0.2166
     19 H          61.4547   85.4030   13.1137 H       1  UNL1        0.2923
     20 C          63.4080   84.7479   12.4418 C.3     1  UNL1        0.2258
     21 C          63.9064   83.2645    9.8823 C.3     1  UNL1        0.0308
     22 C          63.4385   82.5236   11.0997 C.ar    1  UNL1       -0.0223
     23 C          63.2197   81.0409   11.0373 C.ar    1  UNL1       -0.0045
     24 C          62.7518   80.3000   12.2547 C.ar    1  UNL1       -0.0007
     25 C          62.5026   81.0417   13.5345 C.ar    1  UNL1       -0.0045
     26 C          62.7214   82.5243   13.5969 C.ar    1  UNL1       -0.0223
     27 C          62.4722   83.2660   14.8766 C.3     1  UNL1        0.0308
     28 C          63.1893   83.2653   12.3795 C.ar    1  UNL1        0.0162
@<TRIPOS>BOND
     1    21    22    1
     2    22    23   ar
     3    23    24   ar
     4    24    25   ar
     5    25    26   ar
     6    26    27    1
     7    26    28   ar
     8    28    20    1
     9    20    18    1
    10    18     1    1
    11     1     2    2
    12     2     3    1
    13     3    12    1
    14    12    13    1
    15    13    14    1
    16    14    15    1
    17    15    16    1
    18    16    17    2
    19     3     4    2
    20     4     5    1
    21     5     6    2
    22     6     7    1
    23     6     8    1
    24     8     9    1
    25     8    10    2
    26    10    11    1
    27    28    22   ar
    28    11     1    1
    29    16    12   am
    30    11     5    1
    31    18    19    1
@<TRIPOS>MOLECULE
*****
 28 31 0 0 0
SMALL
GASTEIGER

@<TRIPOS>ATOM
      1 C          62.2542   86.9683   11.9349 C.2     1  UNL1        0.3279
      2 N          63.1179   88.0662   12.4813 N.2     1  UNL1       -0.0020
      3 C          63.1390   89.4079   11.8109 C.2     1  UNL1        0.3338
      4 C          62.2964   89.6516   10.5941 C.2     1  UNL1        0.0879
      5 C          61.4328   88.5537   10.0476 C.2     1  UNL1        0.0161
      6 C          60.5024   88.4992    8.8723 C.2     1  UNL1       -0.0100
      7 C          60.2181   89.6228    7.9201 C.3     1  UNL1        0.0320
      8 C          59.9063   87.1238    8.8163 C.2     1  UNL1        0.0509
      9 C          58.9212   86.6306    7.7982 C.3     1  UNL1        0.0513
     10 N          60.4682   86.3283    9.9571 N.2     1  UNL1       -0.2602
     11 C          61.4117   87.2120   10.7181 C.3     1  UNL1        0.2298
     12 N          64.0027   90.5059   12.3573 N.am    1  UNL1       -0.1406
     13 C          64.4840   91.7083   11.6007 C.3     1  UNL1        0.2108
     14 C          65.3154   92.5398   12.5321 C.3     1  UNL1        0.0634
     15 C          65.3480   91.8511   13.8643 C.3     1  UNL1        0.1170
     16 C          64.5367   90.5941   13.7563 C.2     1  UNL1        0.3135
     17 O          64.3008   89.5999   14.8544 O.2     1  UNL1       -0.2468
     18 N          62.2331   85.6266   12.6054 N.pl3   1  UNL1       -0.2166
     19 H          61.4436   85.3474   13.1231 H       1  UNL1        0.2923
     20 C          63.4148   84.7103   12.4869 C.3     1  UNL1        0.2258
     21 C          62.5260   83.0991   14.8563 C.3     1  UNL1        0.0308
     22 C          62.7619   82.4254   13.5371 C.ar    1  UNL1       -0.0223
     23 C          62.5534   80.9460   13.4025 C.ar    1  UNL1       -0.0045
     24 C          62.7893   80.2723   12.0832 C.ar    1  UNL1       -0.0007
     25 C          63.2337   81.0780   10.8985 C.ar    1  UNL1       -0.0045
     26 C          63.4422   82.5573   11.0331 C.ar    1  UNL1       -0.0223
     27 C          63.8865   83.3629    9.8484 C.3     1  UNL1        0.0308
     28 C          63.2063   83.2310   12.3524 C.ar    1  UNL1        0.0162
@<TRIPOS>BOND
     1    21    22    1
     2    22    23   ar
     3    23    24   ar
     4    24    25   ar
     5    25    26   ar
     6    26    27    1
     7    26    28   ar
     8    28    20    1
     9    20    18    1
    10    18     1    1
    11     1     2    2
    12     2     3    1
    13     3    12    1
    14    12    13    1
    15    13    14    1
    16    14    15    1
    17    15    16    1
    18    16    17    2
    19     3     4    2
    20     4     5    1
    21     5     6    2
    22     6     7    1
    23     6     8    1
    24     8     9    1
    25     8    10    2
    26    10    11    1
    27    28    22   ar
    28    11     1    1
    29    16    12   am
    30    11     5    1
    31    18    19    1
@<TRIPOS>MOLECULE
*****
 28 31 0 0 0
SMALL
GASTEIGER

@<TRIPOS>ATOM
      1 C          63.6865   87.2275   13.7815 C.2     1  UNL1        0.3279
      2 N          64.2536   88.3313   14.6241 N.2     1  UNL1       -0.0020
      3 C          64.1958   89.7497   14.1398 C.2     1  UNL1        0.3338
      4 C          63.5709   90.0644   12.8130 C.2     1  UNL1        0.0879
      5 C          63.0038   88.9606   11.9704 C.2     1  UNL1        0.0161
      6 C          62.3314   88.9656   10.6296 C.2     1  UNL1       -0.0100
      7 C          62.0638   90.1739    9.7820 C.3     1  UNL1        0.0320
      8 C          61.9737   87.5502   10.2851 C.2     1  UNL1        0.0509
      9 C          61.2854   87.0946    9.0326 C.3     1  UNL1        0.0513
     10 N          62.4249   86.6704   11.4131 N.2     1  UNL1       -0.2602
     11 C          63.0616   87.5421   12.4547 C.3     1  UNL1        0.2298
     12 N          64.7629   90.8536   14.9824 N.am    1  UNL1       -0.1406
     13 C          64.1647   91.3933   16.2476 C.3     1  UNL1        0.2108
     14 C          65.0599   92.4848   16.7548 C.3     1  UNL1        0.0634
     15 C          66.2114   92.6197   15.8031 C.3     1  UNL1        0.1170
     16 C          66.0279   91.6116   14.7077 C.2     1  UNL1        0.3135
     17 O          66.9478   91.3987   13.5421 O.2     1  UNL1       -0.2468
     18 N          63.7443   85.8089   14.2657 N.pl3   1  UNL1       -0.2166
     19 H          63.4335   85.5853   15.1727 H       1  UNL1        0.2923
     20 C          64.2757   84.7311   13.3680 C.3     1  UNL1        0.2258
     21 C          64.4526   83.1322   10.8357 C.3     1  UNL1        0.0308
     22 C          63.6374   82.6245   11.9879 C.ar    1  UNL1       -0.0223
     23 C          62.9105   81.3173   11.8739 C.ar    1  UNL1       -0.0045
     24 C          62.0953   80.8095   13.0261 C.ar    1  UNL1       -0.0007
     25 C          62.0068   81.6089   14.2922 C.ar    1  UNL1       -0.0045
     26 C          62.7336   82.9161   14.4062 C.ar    1  UNL1       -0.0223
     27 C          62.6452   83.7155   15.6723 C.3     1  UNL1        0.0308
     28 C          63.5489   83.4239   13.2540 C.ar    1  UNL1        0.0162
@<TRIPOS>BOND
     1    21    22    1
     2    22    23   ar
     3    23    24   ar
     4    24    25   ar
     5    25    26   ar
     6    26    27    1
     7    26    28   ar
     8    28    20    1
     9    20    18    1
    10    18     1    1
    11     1     2    2
    12     2     3    1
    13     3    12    1
    14    12    13    1
    15    13    14    1
    16    14    15    1
    17    15    16    1
    18    16    17    2
    19     3     4    2
    20     4     5    1
    21     5     6    2
    22     6     7    1
    23     6     8    1
    24     8     9    1
    25     8    10    2
    26    10    11    1
    27    28    22   ar
    28    11     1    1
    29    16    12   am
    30    11     5    1
    31    18    19    1
