@<TRIPOS>MOLECULE
*****
 25 28 0 0 0
SMALL
GASTEIGER

@<TRIPOS>ATOM
      1 C          62.8183   89.8811   11.7844 C.2     1  UNL1        0.0891
      2 C          62.9226   90.6748   10.5158 C.2     1  UNL1        0.0323
      3 C          62.0867   90.3023    9.3273 C.3     1  UNL1        0.0472
      4 N          63.8626   91.8409   10.4358 N.pl3   1  UNL1       -0.2873
      5 C          64.6985   92.2133   11.6244 C.ar    1  UNL1        0.2019
      6 N          65.7058   93.3034   11.8411 N.ar    1  UNL1       -0.2135
      7 C          66.2242   93.1834   13.2436 C.ar    1  UNL1        0.0999
      8 C          67.2330   93.9839   14.0127 C.ar    1  UNL1        0.0207
      9 C          67.5548   93.6201   15.4318 C.ar    1  UNL1        0.0016
     10 C          66.8678   92.4559   16.0819 C.ar    1  UNL1        0.0016
     11 C          65.8590   91.6555   15.3128 C.ar    1  UNL1        0.0188
     12 C          65.5372   92.0192   13.8937 C.ar    1  UNL1        0.0804
     13 N          64.5943   91.4197   12.8929 N.ar    1  UNL1       -0.2918
     14 C          63.6542   90.2536   12.9729 C.3     1  UNL1        0.1610
     15 H          63.9310   92.3618    9.6032 H       1  UNL1        0.1547
     16 C          63.5499   89.4598   14.2415 C.ar    1  UNL1        0.1249
     17 C          64.2274   88.1510   14.5208 C.ar    1  UNL1        0.1985
     18 O          63.8460   87.7180   15.9054 O.2     1  UNL1       -0.4282
     19 C          62.9329   88.7591   16.4818 C.ar    1  UNL1        0.2849
     20 N          62.7499   89.8357   15.4535 N.ar    1  UNL1       -0.2063
     21 C          61.8782   88.7149   11.8644 C.2     1  UNL1        0.3402
     22 O          60.4214   88.9436   12.1390 O.2     1  UNL1       -0.2451
     23 O          62.3950   87.3203   11.6699 O.3     1  UNL1       -0.4456
     24 C          62.1104   86.5182    9.2152 C.3     1  UNL1        0.0513
     25 C          61.7464   86.4133   10.6666 C.3     1  UNL1        0.2089
@<TRIPOS>BOND
     1    24    25    1
     2    25    23    1
     3    23    21    1
     4    21    22    2
     5    21     1    1
     6     1     2    2
     7     2     3    1
     8     2     4    1
     9     4     5    1
    10     5     6   ar
    11     6     7   ar
    12     7     8   ar
    13     8     9   ar
    14     9    10   ar
    15    10    11   ar
    16    11    12   ar
    17    12    13   ar
    18    13    14    1
    19    14    16    1
    20    16    17   ar
    21    17    18   ar
    22    18    19   ar
    23    19    20   ar
    24    14     1    1
    25    20    16   ar
    26    13     5   ar
    27    12     7   ar
    28     4    15    1
@<TRIPOS>MOLECULE
*****
 25 28 0 0 0
SMALL
GASTEIGER

@<TRIPOS>ATOM
      1 C          62.6498   89.0089   11.5616 C.2     1  UNL1        0.0891
      2 C          63.3282   89.5415   12.7889 C.2     1  UNL1        0.0323
      3 C          63.4655   91.0220   12.9872 C.3     1  UNL1        0.0472
      4 N          63.8692   88.5936   13.8178 N.pl3   1  UNL1       -0.2873
      5 C          63.7318   87.1131   13.6195 C.ar    1  UNL1        0.2019
      6 N          64.1630   85.9442   14.4549 N.ar    1  UNL1       -0.2135
      7 C          63.7512   84.6893   13.7439 C.ar    1  UNL1        0.0999
      8 C          63.9120   83.2393   14.0926 C.ar    1  UNL1        0.0207
      9 C          63.3871   82.1826   13.1665 C.ar    1  UNL1        0.0016
     10 C          62.7013   82.5758   11.8918 C.ar    1  UNL1        0.0016
     11 C          62.5404   84.0258   11.5431 C.ar    1  UNL1        0.0188
     12 C          63.0654   85.0825   12.4691 C.ar    1  UNL1        0.0804
     13 N          63.0534   86.5805   12.3923 N.ar    1  UNL1       -0.2918
     14 C          62.5124   87.5284   11.3633 C.3     1  UNL1        0.1610
     15 H          64.3144   88.9431   14.6233 H       1  UNL1        0.1547
     16 C          61.8340   86.9958   10.1360 C.ar    1  UNL1        0.1249
     17 C          62.5176   86.4548    8.9153 C.ar    1  UNL1        0.1985
     18 O          61.4589   86.0354    7.9389 O.2     1  UNL1       -0.4282
     19 C          60.1212   86.3173    8.5560 C.ar    1  UNL1        0.2849
     20 N          60.3530   86.9109    9.9139 N.ar    1  UNL1       -0.2063
     21 C          62.1088   89.9568   10.5326 C.2     1  UNL1        0.3402
     22 O          63.0495   90.7759    9.6993 O.2     1  UNL1       -0.2451
     23 O          60.6272   90.0856   10.3369 O.3     1  UNL1       -0.4456
     24 C          59.0957   89.3732   12.3109 C.3     1  UNL1        0.0513
     25 C          59.7467   90.4505   11.4951 C.3     1  UNL1        0.2089
@<TRIPOS>BOND
     1    24    25    1
     2    25    23    1
     3    23    21    1
     4    21    22    2
     5    21     1    1
     6     1     2    2
     7     2     3    1
     8     2     4    1
     9     4     5    1
    10     5     6   ar
    11     6     7   ar
    12     7     8   ar
    13     8     9   ar
    14     9    10   ar
    15    10    11   ar
    16    11    12   ar
    17    12    13   ar
    18    13    14    1
    19    14    16    1
    20    16    17   ar
    21    17    18   ar
    22    18    19   ar
    23    19    20   ar
    24    14     1    1
    25    20    16   ar
    26    13     5   ar
    27    12     7   ar
    28     4    15    1
@<TRIPOS>MOLECULE
*****
 25 28 0 0 0
SMALL
GASTEIGER

@<TRIPOS>ATOM
      1 C          63.2212   88.7415   12.6397 C.2     1  UNL1        0.0891
      2 C          64.0245   88.9569   13.8880 C.2     1  UNL1        0.0323
      3 C          64.3394   90.3501   14.3461 C.3     1  UNL1        0.0472
      4 N          64.5128   87.7792   14.6782 N.pl3   1  UNL1       -0.2873
      5 C          64.1978   86.3860   14.2201 C.ar    1  UNL1        0.2019
      6 N          64.5412   85.0409   14.7881 N.ar    1  UNL1       -0.2135
      7 C          63.9502   83.9941   13.8909 C.ar    1  UNL1        0.0999
      8 C          63.9658   82.4954   13.9511 C.ar    1  UNL1        0.0207
      9 C          63.2727   81.6950   12.8887 C.ar    1  UNL1        0.0016
     10 C          62.5640   82.3932   11.7661 C.ar    1  UNL1        0.0016
     11 C          62.5484   83.8918   11.7059 C.ar    1  UNL1        0.0188
     12 C          63.2415   84.6923   12.7683 C.ar    1  UNL1        0.0804
     13 N          63.3946   86.1706   12.9717 N.ar    1  UNL1       -0.2918
     14 C          62.9062   87.3483   12.1816 C.3     1  UNL1        0.1610
     15 H          65.0400   87.9206   15.4975 H       1  UNL1        0.1547
     16 C          62.1029   87.1329   10.9332 C.ar    1  UNL1        0.1249
     17 C          62.6545   86.8393    9.5695 C.ar    1  UNL1        0.1985
     18 O          61.4994   86.6983    8.6229 O.2     1  UNL1       -0.4282
     19 C          60.2341   86.9047    9.4015 C.ar    1  UNL1        0.2849
     20 N          60.6071   87.1733   10.8293 N.ar    1  UNL1       -0.2063
     21 C          62.7328   89.9193   11.8494 C.2     1  UNL1        0.3402
     22 O          61.2989   90.3477   11.9507 O.2     1  UNL1       -0.2451
     23 O          63.6784   90.6685   10.9580 O.3     1  UNL1       -0.4456
     24 C          65.3592   92.6162   10.5963 C.3     1  UNL1        0.0513
     25 C          64.3485   91.9152   11.4546 C.3     1  UNL1        0.2089
@<TRIPOS>BOND
     1    24    25    1
     2    25    23    1
     3    23    21    1
     4    21    22    2
     5    21     1    1
     6     1     2    2
     7     2     3    1
     8     2     4    1
     9     4     5    1
    10     5     6   ar
    11     6     7   ar
    12     7     8   ar
    13     8     9   ar
    14     9    10   ar
    15    10    11   ar
    16    11    12   ar
    17    12    13   ar
    18    13    14    1
    19    14    16    1
    20    16    17   ar
    21    17    18   ar
    22    18    19   ar
    23    19    20   ar
    24    14     1    1
    25    20    16   ar
    26    13     5   ar
    27    12     7   ar
    28     4    15    1
@<TRIPOS>MOLECULE
*****
 25 28 0 0 0
SMALL
GASTEIGER

@<TRIPOS>ATOM
      1 C          63.3755   84.8498   13.1212 C.2     1  UNL1        0.0891
      2 C          64.0801   84.9590   14.4408 C.2     1  UNL1        0.0323
      3 C          64.3716   83.7234   15.2399 C.3     1  UNL1        0.0472
      4 N          64.4933   86.3037   14.9614 N.pl3   1  UNL1       -0.2873
      5 C          64.2018   87.5392   14.1624 C.ar    1  UNL1        0.2019
      6 N          64.4863   88.9897   14.4173 N.ar    1  UNL1       -0.2135
      7 C          63.9576   89.7771   13.2551 C.ar    1  UNL1        0.0999
      8 C          63.9538   91.2472   12.9573 C.ar    1  UNL1        0.0207
      9 C          63.3386   91.7533   11.6864 C.ar    1  UNL1        0.0016
     10 C          62.7273   90.7894   10.7132 C.ar    1  UNL1        0.0016
     11 C          62.7310   89.3192   11.0110 C.ar    1  UNL1        0.0188
     12 C          63.3462   88.8131   12.2820 C.ar    1  UNL1        0.0804
     13 N          63.4971   87.4301   12.8427 N.ar    1  UNL1       -0.2918
     14 C          63.0840   86.0854   12.3221 C.3     1  UNL1        0.1610
     15 H          64.9558   86.3753   15.8276 H       1  UNL1        0.1547
     16 C          62.3793   85.9761   11.0024 C.ar    1  UNL1        0.1249
     17 C          60.9567   86.3645   10.7277 C.ar    1  UNL1        0.1985
     18 O          60.6718   86.0877    9.2812 O.2     1  UNL1       -0.4282
     19 C          61.9182   85.5284    8.6620 C.ar    1  UNL1        0.2849
     20 N          62.9735   85.4595    9.7257 N.ar    1  UNL1       -0.2063
     21 C          62.9623   83.5050   12.6005 C.2     1  UNL1        0.3402
     22 O          63.7074   82.8822   11.4573 O.2     1  UNL1       -0.2451
     23 O          61.8040   82.7833   13.2230 O.3     1  UNL1       -0.4456
     24 C          60.7516   80.5832   14.1185 C.3     1  UNL1        0.0513
     25 C          61.9467   81.3465   13.6296 C.3     1  UNL1        0.2089
@<TRIPOS>BOND
     1    24    25    1
     2    25    23    1
     3    23    21    1
     4    21    22    2
     5    21     1    1
     6     1     2    2
     7     2     3    1
     8     2     4    1
     9     4     5    1
    10     5     6   ar
    11     6     7   ar
    12     7     8   ar
    13     8     9   ar
    14     9    10   ar
    15    10    11   ar
    16    11    12   ar
    17    12    13   ar
    18    13    14    1
    19    14    16    1
    20    16    17   ar
    21    17    18   ar
    22    18    19   ar
    23    19    20   ar
    24    14     1    1
    25    20    16   ar
    26    13     5   ar
    27    12     7   ar
    28     4    15    1
@<TRIPOS>MOLECULE
*****
 25 28 0 0 0
SMALL
GASTEIGER

@<TRIPOS>ATOM
      1 C          61.5758   88.7363   10.4183 C.2     1  UNL1        0.0891
      2 C          60.9800   87.7153    9.4950 C.2     1  UNL1        0.0323
      3 C          60.1519   88.1553    8.3242 C.3     1  UNL1        0.0472
      4 N          61.2123   86.2542    9.7424 N.pl3   1  UNL1       -0.2873
      5 C          62.0404   85.8142   10.9132 C.ar    1  UNL1        0.2019
      6 N          62.4385   84.4548   11.4067 N.ar    1  UNL1       -0.2135
      7 C          63.2804   84.6356   12.6349 C.ar    1  UNL1        0.0999
      8 C          63.9515   83.6508   13.5457 C.ar    1  UNL1        0.0207
      9 C          64.7447   84.1371   14.7222 C.ar    1  UNL1        0.0016
     10 C          64.8669   85.6084   14.9879 C.ar    1  UNL1        0.0016
     11 C          64.1958   86.5932   14.0771 C.ar    1  UNL1        0.0188
     12 C          63.4025   86.1069   12.9006 C.ar    1  UNL1        0.0804
     13 N          62.6362   86.8352   11.8365 N.ar    1  UNL1       -0.2918
     14 C          62.4039   88.2963   11.5890 C.3     1  UNL1        0.1610
     15 H          60.8213   85.5840    9.1365 H       1  UNL1        0.1547
     16 C          62.9997   89.3174   12.5124 C.ar    1  UNL1        0.1249
     17 C          64.1581   90.2181   12.2011 C.ar    1  UNL1        0.1985
     18 O          64.4159   91.0744   13.4054 O.2     1  UNL1       -0.4282
     19 C          63.4169   90.7030   14.4608 C.ar    1  UNL1        0.2849
     20 N          62.5416   89.6171   13.9089 N.ar    1  UNL1       -0.2063
     21 C          61.3435   90.1975   10.1708 C.2     1  UNL1        0.3402
     22 O          62.4747   91.0695    9.7125 O.2     1  UNL1       -0.2451
     23 O          59.9802   90.7864   10.3817 O.3     1  UNL1       -0.4456
     24 C          58.9378   89.3321   12.2653 C.3     1  UNL1        0.0513
     25 C          59.3156   90.6782   11.7220 C.3     1  UNL1        0.2089
@<TRIPOS>BOND
     1    24    25    1
     2    25    23    1
     3    23    21    1
     4    21    22    2
     5    21     1    1
     6     1     2    2
     7     2     3    1
     8     2     4    1
     9     4     5    1
    10     5     6   ar
    11     6     7   ar
    12     7     8   ar
    13     8     9   ar
    14     9    10   ar
    15    10    11   ar
    16    11    12   ar
    17    12    13   ar
    18    13    14    1
    19    14    16    1
    20    16    17   ar
    21    17    18   ar
    22    18    19   ar
    23    19    20   ar
    24    14     1    1
    25    20    16   ar
    26    13     5   ar
    27    12     7   ar
    28     4    15    1
@<TRIPOS>MOLECULE
*****
 25 28 0 0 0
SMALL
GASTEIGER

@<TRIPOS>ATOM
      1 C          62.7776   85.0742   10.9033 C.2     1  UNL1        0.0891
      2 C          62.3731   85.7905    9.6490 C.2     1  UNL1        0.0323
      3 C          62.0050   85.0075    8.4236 C.3     1  UNL1        0.0472
      4 N          62.3366   87.2898    9.6200 N.pl3   1  UNL1       -0.2873
      5 C          62.7047   88.0728   10.8454 C.ar    1  UNL1        0.2019
      6 N          62.7618   89.5473   11.1147 N.ar    1  UNL1       -0.2135
      7 C          63.2016   89.7423   12.5355 C.ar    1  UNL1        0.0999
      8 C          63.4343   90.9779   13.3535 C.ar    1  UNL1        0.0207
      9 C          63.8818   90.8594   14.7803 C.ar    1  UNL1        0.0016
     10 C          64.0965   89.5054   15.3890 C.ar    1  UNL1        0.0016
     11 C          63.8638   88.2699   14.5710 C.ar    1  UNL1        0.0188
     12 C          63.4164   88.3883   13.1442 C.ar    1  UNL1        0.0804
     13 N          63.1093   87.3565   12.0997 N.ar    1  UNL1       -0.2918
     14 C          63.1457   85.8572   12.1286 C.3     1  UNL1        0.1610
     15 H          62.0711   87.7599    8.7968 H       1  UNL1        0.1547
     16 C          63.5503   85.1409   13.3830 C.ar    1  UNL1        0.1249
     17 C          64.9069   84.5711   13.6744 C.ar    1  UNL1        0.1985
     18 O          64.8642   83.9467   15.0376 O.2     1  UNL1       -0.4282
     19 C          63.4813   84.1305   15.5887 C.ar    1  UNL1        0.2849
     20 N          62.6692   84.8686   14.5660 N.ar    1  UNL1       -0.2063
     21 C          62.8141   83.5749   10.9323 C.2     1  UNL1        0.3402
     22 O          63.7688   82.8307   10.0464 O.2     1  UNL1       -0.2451
     23 O          61.8959   82.8199   11.8471 O.3     1  UNL1       -0.4456
     24 C          61.6513   81.2138   13.8745 C.3     1  UNL1        0.0513
     25 C          62.4305   81.6989   12.6882 C.3     1  UNL1        0.2089
@<TRIPOS>BOND
     1    24    25    1
     2    25    23    1
     3    23    21    1
     4    21    22    2
     5    21     1    1
     6     1     2    2
     7     2     3    1
     8     2     4    1
     9     4     5    1
    10     5     6   ar
    11     6     7   ar
    12     7     8   ar
    13     8     9   ar
    14     9    10   ar
    15    10    11   ar
    16    11    12   ar
    17    12    13   ar
    18    13    14    1
    19    14    16    1
    20    16    17   ar
    21    17    18   ar
    22    18    19   ar
    23    19    20   ar
    24    14     1    1
    25    20    16   ar
    26    13     5   ar
    27    12     7   ar
    28     4    15    1
@<TRIPOS>MOLECULE
*****
 25 28 0 0 0
SMALL
GASTEIGER

@<TRIPOS>ATOM
      1 C          63.2797   83.2911   12.2046 C.2     1  UNL1        0.0891
      2 C          63.0777   82.8656   10.7804 C.2     1  UNL1        0.0323
      3 C          63.1751   81.4153   10.4099 C.3     1  UNL1        0.0472
      4 N          62.7785   83.8904    9.7268 N.pl3   1  UNL1       -0.2873
      5 C          62.6811   85.3407   10.0973 C.ar    1  UNL1        0.2019
      6 N          62.4009   86.5682    9.2821 N.ar    1  UNL1       -0.2135
      7 C          62.4297   87.7524   10.2024 C.ar    1  UNL1        0.0999
      8 C          62.2231   89.2180    9.9590 C.ar    1  UNL1        0.0207
      9 C          62.3144   90.1878   11.0995 C.ar    1  UNL1        0.0016
     10 C          62.6124   89.6921   12.4835 C.ar    1  UNL1        0.0016
     11 C          62.8190   88.2265   12.7270 C.ar    1  UNL1        0.0188
     12 C          62.7277   87.2567   11.5864 C.ar    1  UNL1        0.0804
     13 N          62.8830   85.7661   11.5214 N.ar    1  UNL1       -0.2918
     14 C          63.1823   84.7414   12.5750 C.3     1  UNL1        0.1610
     15 H          62.6459   83.6111    8.7920 H       1  UNL1        0.1547
     16 C          63.3843   85.1668   13.9993 C.ar    1  UNL1        0.1249
     17 C          64.6241   85.7939   14.5648 C.ar    1  UNL1        0.1985
     18 O          64.3878   86.0544   16.0230 O.2     1  UNL1       -0.4282
     19 C          63.0022   85.5885   16.3587 C.ar    1  UNL1        0.2849
     20 N          62.3819   85.0399   15.1079 N.ar    1  UNL1       -0.2063
     21 C          63.5790   82.2662   13.2583 C.2     1  UNL1        0.3402
     22 O          64.9623   81.6995   13.3817 O.2     1  UNL1       -0.2451
     23 O          62.4950   81.8083   14.1884 O.3     1  UNL1       -0.4456
     24 C          60.2020   80.5881   14.1304 C.3     1  UNL1        0.0513
     25 C          61.6749   80.5996   13.8470 C.3     1  UNL1        0.2089
@<TRIPOS>BOND
     1    24    25    1
     2    25    23    1
     3    23    21    1
     4    21    22    2
     5    21     1    1
     6     1     2    2
     7     2     3    1
     8     2     4    1
     9     4     5    1
    10     5     6   ar
    11     6     7   ar
    12     7     8   ar
    13     8     9   ar
    14     9    10   ar
    15    10    11   ar
    16    11    12   ar
    17    12    13   ar
    18    13    14    1
    19    14    16    1
    20    16    17   ar
    21    17    18   ar
    22    18    19   ar
    23    19    20   ar
    24    14     1    1
    25    20    16   ar
    26    13     5   ar
    27    12     7   ar
    28     4    15    1
@<TRIPOS>MOLECULE
*****
 25 28 0 0 0
SMALL
GASTEIGER

@<TRIPOS>ATOM
      1 C          60.5702   87.7861    9.2853 C.2     1  UNL1        0.0891
      2 C          60.5378   88.6030   10.5429 C.2     1  UNL1        0.0323
      3 C          59.7582   89.8838   10.5854 C.3     1  UNL1        0.0472
      4 N          61.2851   88.1392   11.7580 N.pl3   1  UNL1       -0.2873
      5 C          62.0647   86.8584   11.7155 C.ar    1  UNL1        0.2019
      6 N          62.8932   86.1529   12.7479 N.ar    1  UNL1       -0.2135
      7 C          63.4375   84.8999   12.1285 C.ar    1  UNL1        0.0999
      8 C          64.3176   83.8128   12.6703 C.ar    1  UNL1        0.0207
      9 C          64.7058   82.6569   11.7968 C.ar    1  UNL1        0.0016
     10 C          64.2138   82.5880   10.3814 C.ar    1  UNL1        0.0016
     11 C          63.3337   83.6751    9.8396 C.ar    1  UNL1        0.0188
     12 C          62.9456   84.8311   10.7131 C.ar    1  UNL1        0.0804
     13 N          62.0971   86.0415   10.4579 N.ar    1  UNL1       -0.2918
     14 C          61.3499   86.5053    9.2428 C.3     1  UNL1        0.1610
     15 H          61.2638   88.6754   12.5834 H       1  UNL1        0.1547
     16 C          61.3822   85.6883    7.9852 C.ar    1  UNL1        0.1249
     17 C          60.1879   85.1905    7.2262 C.ar    1  UNL1        0.1985
     18 O          60.6823   84.4203    6.0377 O.2     1  UNL1       -0.4282
     19 C          62.1818   84.4421    6.0621 C.ar    1  UNL1        0.2849
     20 N          62.6145   85.2258    7.2657 N.ar    1  UNL1       -0.2063
     21 C          59.8229   88.2499    8.0702 C.2     1  UNL1        0.3402
     22 O          58.5770   87.5352    7.6379 O.2     1  UNL1       -0.2451
     23 O          60.3216   89.4283    7.2875 O.3     1  UNL1       -0.4456
     24 C          58.5919   90.6973    5.8220 C.3     1  UNL1        0.0513
     25 C          59.7370   89.7358    5.9408 C.3     1  UNL1        0.2089
@<TRIPOS>BOND
     1    24    25    1
     2    25    23    1
     3    23    21    1
     4    21    22    2
     5    21     1    1
     6     1     2    2
     7     2     3    1
     8     2     4    1
     9     4     5    1
    10     5     6   ar
    11     6     7   ar
    12     7     8   ar
    13     8     9   ar
    14     9    10   ar
    15    10    11   ar
    16    11    12   ar
    17    12    13   ar
    18    13    14    1
    19    14    16    1
    20    16    17   ar
    21    17    18   ar
    22    18    19   ar
    23    19    20   ar
    24    14     1    1
    25    20    16   ar
    26    13     5   ar
    27    12     7   ar
    28     4    15    1
@<TRIPOS>MOLECULE
*****
 25 28 0 0 0
SMALL
GASTEIGER

@<TRIPOS>ATOM
      1 C          63.2757   93.4721    0.2876 C.2     1  UNL1        0.0891
      2 C          62.4889   92.7518    1.3422 C.2     1  UNL1        0.0323
      3 C          63.1269   92.4206    2.6588 C.3     1  UNL1        0.0472
      4 N          61.0642   92.3627    1.0802 N.pl3   1  UNL1       -0.2873
      5 C          60.4262   92.6939   -0.2363 C.ar    1  UNL1        0.2019
      6 N          59.0504   92.4395   -0.7772 N.ar    1  UNL1       -0.2135
      7 C          58.9869   93.0026   -2.1661 C.ar    1  UNL1        0.0999
      8 C          57.8848   93.0446   -3.1827 C.ar    1  UNL1        0.0207
      9 C          58.1192   93.6890   -4.5167 C.ar    1  UNL1        0.0016
     10 C          59.4557   94.2915   -4.8342 C.ar    1  UNL1        0.0016
     11 C          60.5579   94.2494   -3.8176 C.ar    1  UNL1        0.0188
     12 C          60.3235   93.6050   -2.4836 C.ar    1  UNL1        0.0804
     13 N          61.2130   93.4142   -1.2909 N.ar    1  UNL1       -0.2918
     14 C          62.6377   93.8033   -1.0289 C.3     1  UNL1        0.1610
     15 H          60.5478   91.8899    1.7724 H       1  UNL1        0.1547
     16 C          63.4245   94.5237   -2.0835 C.ar    1  UNL1        0.1249
     17 C          64.1800   93.8843   -3.2107 C.ar    1  UNL1        0.1985
     18 O          64.8164   94.9754   -4.0198 O.2     1  UNL1       -0.4282
     19 C          64.4542   96.2890   -3.3928 C.ar    1  UNL1        0.2849
     20 N          63.5940   96.0098   -2.1961 N.ar    1  UNL1       -0.2063
     21 C          64.7005   93.8613    0.5496 C.2     1  UNL1        0.3402
     22 O          65.7818   92.8226    0.5057 O.2     1  UNL1       -0.2451
     23 O          65.0439   95.2891    0.8554 O.3     1  UNL1       -0.4456
     24 C          65.1809   96.5724    3.1102 C.3     1  UNL1        0.0513
     25 C          64.3655   95.9971    1.9904 C.3     1  UNL1        0.2089
@<TRIPOS>BOND
     1    24    25    1
     2    25    23    1
     3    23    21    1
     4    21    22    2
     5    21     1    1
     6     1     2    2
     7     2     3    1
     8     2     4    1
     9     4     5    1
    10     5     6   ar
    11     6     7   ar
    12     7     8   ar
    13     8     9   ar
    14     9    10   ar
    15    10    11   ar
    16    11    12   ar
    17    12    13   ar
    18    13    14    1
    19    14    16    1
    20    16    17   ar
    21    17    18   ar
    22    18    19   ar
    23    19    20   ar
    24    14     1    1
    25    20    16   ar
    26    13     5   ar
    27    12     7   ar
    28     4    15    1
