@<TRIPOS>MOLECULE
*****
 28 31 0 0 0
SMALL
GASTEIGER

@<TRIPOS>ATOM
      1 C          63.2193   91.0432   11.2352 C.ar    1  UNL1        0.0813
      2 C          64.0571   92.0113   10.4537 C.ar    1  UNL1        0.0365
      3 C          65.1708   92.7550   11.1294 C.ar    1  UNL1        0.0857
      4 C          65.4467   92.5306   12.5866 C.ar    1  UNL1        0.0989
      5 N          64.6089   91.5625   13.3682 N.ar    1  UNL1       -0.2906
      6 C          64.6444   91.1374   14.8062 C.ar    1  UNL1        0.0567
      7 C          65.6033   91.6320   15.8483 C.3     1  UNL1        0.0517
      8 C          63.5527   90.1310   15.0193 C.ar    1  UNL1        0.0730
      9 C          63.2283   89.4425   16.3119 C.3     1  UNL1        0.0534
     10 N          62.8424   89.9341   13.7129 N.ar    1  UNL1       -0.2299
     11 C          63.4952   90.8188   12.6925 C.ar    1  UNL1        0.1604
     12 N          66.0087   93.7232   10.3479 N.ar    1  UNL1       -0.2716
     13 C          65.5556   95.1435   10.1822 C.ar    1  UNL1        0.0830
     14 C          66.3934   96.1116    9.4007 C.ar    1  UNL1        0.0192
     15 C          67.6843   95.6595    8.7849 C.ar    1  UNL1        0.0064
     16 C          68.1374   94.2392    8.9506 C.ar    1  UNL1        0.0611
     17 C          67.2995   93.2710    9.7321 C.ar    1  UNL1        0.2649
     18 O          67.7526   91.8507    9.8978 O.2     1  UNL1       -0.2666
     19 N          62.1056   90.2994   10.5595 N.pl3   1  UNL1       -0.3267
     20 H          61.2830   90.7741   10.3001 H       1  UNL1        0.1472
     21 C          62.2453   88.8325   10.2790 C.3     1  UNL1        0.1140
     22 C          62.3909   85.8617    9.8882 C.3     1  UNL1        0.0308
     23 C          61.3452   86.6622    9.1702 C.ar    1  UNL1       -0.0242
     24 C          60.3722   85.9773    8.2567 C.ar    1  UNL1       -0.0045
     25 C          59.3265   86.7778    7.5388 C.ar    1  UNL1       -0.0003
     26 C          59.2537   88.2633    7.7342 C.ar    1  UNL1       -0.0003
     27 C          60.2266   88.9482    8.6476 C.ar    1  UNL1       -0.0029
     28 C          61.2724   88.1476    9.3656 C.ar    1  UNL1       -0.0066
@<TRIPOS>BOND
     1    22    23    1
     2    23    24   ar
     3    24    25   ar
     4    25    26   ar
     5    26    27   ar
     6    27    28   ar
     7    28    21    1
     8    21    19    1
     9    19     1    1
    10     1     2   ar
    11     2     3   ar
    12     3    12    1
    13    12    13   ar
    14    13    14   ar
    15    14    15   ar
    16    15    16   ar
    17    16    17   ar
    18    17    18    2
    19     3     4   ar
    20     4     5   ar
    21     5     6   ar
    22     6     7    1
    23     6     8   ar
    24     8     9    1
    25     8    10   ar
    26    10    11   ar
    27    28    23   ar
    28    11     1   ar
    29    17    12   ar
    30    11     5   ar
    31    19    20    1
@<TRIPOS>MOLECULE
*****
 28 31 0 0 0
SMALL
GASTEIGER

@<TRIPOS>ATOM
      1 C          63.3670   90.4399   11.6407 C.ar    1  UNL1        0.0813
      2 C          63.1882   89.3902   12.6972 C.ar    1  UNL1        0.0365
      3 C          63.9901   89.4560   13.9630 C.ar    1  UNL1        0.0857
      4 C          64.9709   90.5714   14.1725 C.ar    1  UNL1        0.0989
      5 N          65.1497   91.6211   13.1160 N.ar    1  UNL1       -0.2906
      6 C          66.0342   92.8303   13.0421 C.ar    1  UNL1        0.0567
      7 C          67.0038   93.2791   14.0949 C.3     1  UNL1        0.0517
      8 C          65.7789   93.5119   11.7305 C.ar    1  UNL1        0.0730
      9 C          66.4484   94.7620   11.2414 C.3     1  UNL1        0.0534
     10 N          64.7366   92.7239   10.9938 N.ar    1  UNL1       -0.2299
     11 C          64.3477   91.5553   11.8502 C.ar    1  UNL1        0.1604
     12 N          63.8113   88.4062   15.0196 N.ar    1  UNL1       -0.2716
     13 C          64.2674   87.0002   14.7646 C.ar    1  UNL1        0.0830
     14 C          64.0886   85.9505   15.8210 C.ar    1  UNL1        0.0192
     15 C          63.4538   86.3068   17.1326 C.ar    1  UNL1        0.0064
     16 C          62.9977   87.7129   17.3876 C.ar    1  UNL1        0.0611
     17 C          63.1765   88.7626   16.3310 C.ar    1  UNL1        0.2649
     18 O          62.7205   90.1686   16.5861 O.2     1  UNL1       -0.2666
     19 N          62.5650   90.3742   10.3748 N.pl3   1  UNL1       -0.3267
     20 H          62.9750   90.6342    9.5183 H       1  UNL1        0.1472
     21 C          61.1384   89.9123   10.4138 C.3     1  UNL1        0.1140
     22 C          61.7895   87.0501   11.0335 C.3     1  UNL1        0.0308
     23 C          61.0031   87.3908    9.8025 C.ar    1  UNL1       -0.0242
     24 C          60.5423   86.3004    8.8812 C.ar    1  UNL1       -0.0045
     25 C          59.7559   86.6411    7.6501 C.ar    1  UNL1       -0.0003
     26 C          59.4304   88.0722    7.3403 C.ar    1  UNL1       -0.0003
     27 C          59.8912   89.1626    8.2615 C.ar    1  UNL1       -0.0029
     28 C          60.6776   88.8219    9.4926 C.ar    1  UNL1       -0.0066
@<TRIPOS>BOND
     1    22    23    1
     2    23    24   ar
     3    24    25   ar
     4    25    26   ar
     5    26    27   ar
     6    27    28   ar
     7    28    21    1
     8    21    19    1
     9    19     1    1
    10     1     2   ar
    11     2     3   ar
    12     3    12    1
    13    12    13   ar
    14    13    14   ar
    15    14    15   ar
    16    15    16   ar
    17    16    17   ar
    18    17    18    2
    19     3     4   ar
    20     4     5   ar
    21     5     6   ar
    22     6     7    1
    23     6     8   ar
    24     8     9    1
    25     8    10   ar
    26    10    11   ar
    27    28    23   ar
    28    11     1   ar
    29    17    12   ar
    30    11     5   ar
    31    19    20    1
@<TRIPOS>MOLECULE
*****
 28 31 0 0 0
SMALL
GASTEIGER

@<TRIPOS>ATOM
      1 C          63.4920   90.5318   11.5656 C.ar    1  UNL1        0.0813
      2 C          63.2841   89.4795   12.6141 C.ar    1  UNL1        0.0365
      3 C          64.0235   89.5622   13.9166 C.ar    1  UNL1        0.0857
      4 C          64.9708   90.6972   14.1705 C.ar    1  UNL1        0.0989
      5 N          65.1787   91.7495   13.1220 N.ar    1  UNL1       -0.2906
      6 C          66.0415   92.9760   13.0881 C.ar    1  UNL1        0.0567
      7 C          66.9508   93.4449   14.1850 C.3     1  UNL1        0.0517
      8 C          65.8353   93.6514   11.7647 C.ar    1  UNL1        0.0730
      9 C          66.5023   94.9143   11.3059 C.3     1  UNL1        0.0534
     10 N          64.8451   92.8423   10.9806 N.ar    1  UNL1       -0.2299
     11 C          64.4393   91.6668   11.8195 C.ar    1  UNL1        0.1604
     12 N          63.8156   88.5099   14.9652 N.ar    1  UNL1       -0.2716
     13 C          64.2358   87.0944   14.7009 C.ar    1  UNL1        0.0830
     14 C          64.0279   86.0422   15.7494 C.ar    1  UNL1        0.0192
     15 C          63.3999   86.4053   17.0624 C.ar    1  UNL1        0.0064
     16 C          62.9798   87.8208   17.3267 C.ar    1  UNL1        0.0611
     17 C          63.1876   88.8731   16.2781 C.ar    1  UNL1        0.2649
     18 O          62.7675   90.2886   16.5424 O.2     1  UNL1       -0.2666
     19 N          62.7526   90.4491   10.2631 N.pl3   1  UNL1       -0.3267
     20 H          63.1492   90.8307    9.4468 H       1  UNL1        0.1472
     21 C          61.4089   89.7850   10.2043 C.3     1  UNL1        0.1140
     22 C          59.5828   89.3106    7.8718 C.3     1  UNL1        0.0308
     23 C          60.3643   88.1715    8.4564 C.ar    1  UNL1       -0.0242
     24 C          60.2327   86.7951    7.8747 C.ar    1  UNL1       -0.0045
     25 C          61.0141   85.6560    8.4593 C.ar    1  UNL1       -0.0003
     26 C          61.9271   85.8932    9.6255 C.ar    1  UNL1       -0.0003
     27 C          62.0587   87.2695   10.2072 C.ar    1  UNL1       -0.0029
     28 C          61.2773   88.4087    9.6226 C.ar    1  UNL1       -0.0066
@<TRIPOS>BOND
     1    22    23    1
     2    23    24   ar
     3    24    25   ar
     4    25    26   ar
     5    26    27   ar
     6    27    28   ar
     7    28    21    1
     8    21    19    1
     9    19     1    1
    10     1     2   ar
    11     2     3   ar
    12     3    12    1
    13    12    13   ar
    14    13    14   ar
    15    14    15   ar
    16    15    16   ar
    17    16    17   ar
    18    17    18    2
    19     3     4   ar
    20     4     5   ar
    21     5     6   ar
    22     6     7    1
    23     6     8   ar
    24     8     9    1
    25     8    10   ar
    26    10    11   ar
    27    28    23   ar
    28    11     1   ar
    29    17    12   ar
    30    11     5   ar
    31    19    20    1
@<TRIPOS>MOLECULE
*****
 28 31 0 0 0
SMALL
GASTEIGER

@<TRIPOS>ATOM
      1 C          63.7324   87.0897   13.8979 C.ar    1  UNL1        0.0813
      2 C          64.4416   88.2027   14.6107 C.ar    1  UNL1        0.0365
      3 C          64.4186   89.5912   14.0437 C.ar    1  UNL1        0.0857
      4 C          63.6864   89.8666   12.7639 C.ar    1  UNL1        0.0989
      5 N          62.9772   88.7536   12.0510 N.ar    1  UNL1       -0.2906
      6 C          62.1786   88.7227   10.7817 C.ar    1  UNL1        0.0567
      7 C          61.8996   89.8938    9.8869 C.3     1  UNL1        0.0517
      8 C          61.7081   87.3151   10.5642 C.ar    1  UNL1        0.0730
      9 C          60.8758   86.8316    9.4136 C.3     1  UNL1        0.0534
     10 N          62.2158   86.4761   11.6991 N.ar    1  UNL1       -0.2299
     11 C          63.0002   87.3651   12.6181 C.ar    1  UNL1        0.1604
     12 N          65.1278   90.7043   14.7566 N.ar    1  UNL1       -0.2716
     13 C          66.4694   91.1698   14.2732 C.ar    1  UNL1        0.0830
     14 C          67.1786   92.2828   14.9859 C.ar    1  UNL1        0.0192
     15 C          66.5463   92.9304   16.1822 C.ar    1  UNL1        0.0064
     16 C          65.2048   92.4650   16.6656 C.ar    1  UNL1        0.0611
     17 C          64.4956   91.3518   15.9527 C.ar    1  UNL1        0.2649
     18 O          63.1540   90.8864   16.4361 O.2     1  UNL1       -0.2666
     19 N          63.7554   85.7011   14.4649 N.pl3   1  UNL1       -0.3267
     20 H          63.3796   85.5279   15.3583 H       1  UNL1        0.1472
     21 C          64.3508   84.5765   13.6708 C.3     1  UNL1        0.1140
     22 C          64.5480   83.0905   11.0721 C.3     1  UNL1        0.0308
     23 C          63.6759   82.5638   12.1730 C.ar    1  UNL1       -0.0242
     24 C          62.9024   81.2940   11.9746 C.ar    1  UNL1       -0.0045
     25 C          62.0302   80.7672   13.0754 C.ar    1  UNL1       -0.0003
     26 C          61.9316   81.5102   14.3747 C.ar    1  UNL1       -0.0003
     27 C          62.7051   82.7800   14.5732 C.ar    1  UNL1       -0.0029
     28 C          63.5773   83.3068   13.4723 C.ar    1  UNL1       -0.0066
@<TRIPOS>BOND
     1    22    23    1
     2    23    24   ar
     3    24    25   ar
     4    25    26   ar
     5    26    27   ar
     6    27    28   ar
     7    28    21    1
     8    21    19    1
     9    19     1    1
    10     1     2   ar
    11     2     3   ar
    12     3    12    1
    13    12    13   ar
    14    13    14   ar
    15    14    15   ar
    16    15    16   ar
    17    16    17   ar
    18    17    18    2
    19     3     4   ar
    20     4     5   ar
    21     5     6   ar
    22     6     7    1
    23     6     8   ar
    24     8     9    1
    25     8    10   ar
    26    10    11   ar
    27    28    23   ar
    28    11     1   ar
    29    17    12   ar
    30    11     5   ar
    31    19    20    1
@<TRIPOS>MOLECULE
*****
 28 31 0 0 0
SMALL
GASTEIGER

@<TRIPOS>ATOM
      1 C          63.4521   86.6847   13.3191 C.ar    1  UNL1        0.0813
      2 C          62.6865   86.2619   12.1004 C.ar    1  UNL1        0.0365
      3 C          62.3075   87.2771   11.0633 C.ar    1  UNL1        0.0857
      4 C          62.6941   88.7150   11.2448 C.ar    1  UNL1        0.0989
      5 N          63.4597   89.1378   12.4634 N.ar    1  UNL1       -0.2906
      6 C          63.9752   90.4731   12.9117 C.ar    1  UNL1        0.0567
      7 C          63.8203   91.7706   12.1751 C.3     1  UNL1        0.0517
      8 C          64.6729   90.2833   14.2260 C.ar    1  UNL1        0.0730
      9 C          65.3381   91.3576   15.0344 C.3     1  UNL1        0.0534
     10 N          64.5885   88.8306   14.5899 N.ar    1  UNL1       -0.2299
     11 C          63.8387   88.1226   13.5005 C.ar    1  UNL1        0.1604
     12 N          61.5419   86.8544    9.8446 N.ar    1  UNL1       -0.2716
     13 C          62.1906   85.9713    8.8202 C.ar    1  UNL1        0.0830
     14 C          61.4250   85.5486    7.6016 C.ar    1  UNL1        0.0192
     15 C          60.0107   86.0089    7.4072 C.ar    1  UNL1        0.0064
     16 C          59.3619   86.8920    8.4316 C.ar    1  UNL1        0.0611
     17 C          60.1276   87.3148    9.6503 C.ar    1  UNL1        0.2649
     18 O          59.4789   88.1979   10.6746 O.2     1  UNL1       -0.2666
     19 N          63.8312   85.6695   14.3563 N.pl3   1  UNL1       -0.3267
     20 H          63.6602   85.8513   15.3086 H       1  UNL1        0.1472
     21 C          64.4708   84.3773   13.9424 C.3     1  UNL1        0.1140
     22 C          64.6310   83.0506   11.2565 C.3     1  UNL1        0.0308
     23 C          63.6980   82.5163   12.3025 C.ar    1  UNL1       -0.0242
     24 C          62.8451   81.3186   12.0056 C.ar    1  UNL1       -0.0045
     25 C          61.9121   80.7843   13.0515 C.ar    1  UNL1       -0.0003
     26 C          61.8320   81.4477   14.3945 C.ar    1  UNL1       -0.0003
     27 C          62.6849   82.6453   14.6915 C.ar    1  UNL1       -0.0029
     28 C          63.6179   83.1797   13.6455 C.ar    1  UNL1       -0.0066
@<TRIPOS>BOND
     1    22    23    1
     2    23    24   ar
     3    24    25   ar
     4    25    26   ar
     5    26    27   ar
     6    27    28   ar
     7    28    21    1
     8    21    19    1
     9    19     1    1
    10     1     2   ar
    11     2     3   ar
    12     3    12    1
    13    12    13   ar
    14    13    14   ar
    15    14    15   ar
    16    15    16   ar
    17    16    17   ar
    18    17    18    2
    19     3     4   ar
    20     4     5   ar
    21     5     6   ar
    22     6     7    1
    23     6     8   ar
    24     8     9    1
    25     8    10   ar
    26    10    11   ar
    27    28    23   ar
    28    11     1   ar
    29    17    12   ar
    30    11     5   ar
    31    19    20    1
@<TRIPOS>MOLECULE
*****
 28 31 0 0 0
SMALL
GASTEIGER

@<TRIPOS>ATOM
      1 C          63.2362   86.5420   13.1186 C.ar    1  UNL1        0.0813
      2 C          62.4339   86.1811   11.9037 C.ar    1  UNL1        0.0365
      3 C          62.0765   87.2370   10.9001 C.ar    1  UNL1        0.0857
      4 C          62.5214   88.6538   11.1114 C.ar    1  UNL1        0.0989
      5 N          63.3237   89.0147   12.3263 N.ar    1  UNL1       -0.2906
      6 C          63.8982   90.3171   12.7993 C.ar    1  UNL1        0.0567
      7 C          63.7808   91.6385   12.0992 C.3     1  UNL1        0.0517
      8 C          64.6106   90.0662   14.0952 C.ar    1  UNL1        0.0730
      9 C          65.3308   91.0926   14.9186 C.3     1  UNL1        0.0534
     10 N          64.4765   88.6086   14.4232 N.ar    1  UNL1       -0.2299
     11 C          63.6811   87.9588   13.3299 C.ar    1  UNL1        0.1604
     12 N          61.2741   86.8761    9.6852 N.ar    1  UNL1       -0.2716
     13 C          59.8933   87.4339    9.5054 C.ar    1  UNL1        0.0830
     14 C          59.0909   87.0731    8.2906 C.ar    1  UNL1        0.0192
     15 C          59.6693   86.1545    7.2554 C.ar    1  UNL1        0.0064
     16 C          61.0501   85.5967    7.4351 C.ar    1  UNL1        0.0611
     17 C          61.8525   85.9575    8.6500 C.ar    1  UNL1        0.2649
     18 O          63.2333   85.3998    8.8298 O.2     1  UNL1       -0.2666
     19 N          63.5936   85.4860   14.1223 N.pl3   1  UNL1       -0.3267
     20 H          63.2315   85.5331   15.0365 H       1  UNL1        0.1472
     21 C          64.5029   84.3584   13.7329 C.3     1  UNL1        0.1140
     22 C          62.4464   82.3237   14.5272 C.3     1  UNL1        0.0308
     23 C          63.0138   82.3141   13.1387 C.ar    1  UNL1       -0.0242
     24 C          62.5529   81.2870   12.1473 C.ar    1  UNL1       -0.0045
     25 C          63.1202   81.2774   10.7588 C.ar    1  UNL1       -0.0003
     26 C          64.1485   82.2947   10.3617 C.ar    1  UNL1       -0.0003
     27 C          64.6094   83.3217   11.3530 C.ar    1  UNL1       -0.0029
     28 C          64.0420   83.3314   12.7416 C.ar    1  UNL1       -0.0066
@<TRIPOS>BOND
     1    22    23    1
     2    23    24   ar
     3    24    25   ar
     4    25    26   ar
     5    26    27   ar
     6    27    28   ar
     7    28    21    1
     8    21    19    1
     9    19     1    1
    10     1     2   ar
    11     2     3   ar
    12     3    12    1
    13    12    13   ar
    14    13    14   ar
    15    14    15   ar
    16    15    16   ar
    17    16    17   ar
    18    17    18    2
    19     3     4   ar
    20     4     5   ar
    21     5     6   ar
    22     6     7    1
    23     6     8   ar
    24     8     9    1
    25     8    10   ar
    26    10    11   ar
    27    28    23   ar
    28    11     1   ar
    29    17    12   ar
    30    11     5   ar
    31    19    20    1
@<TRIPOS>MOLECULE
*****
 28 31 0 0 0
SMALL
GASTEIGER

@<TRIPOS>ATOM
      1 C          62.1372   88.4876   11.3443 C.ar    1  UNL1        0.0813
      2 C          62.6547   87.2602   12.0339 C.ar    1  UNL1        0.0365
      3 C          62.3504   85.9017   11.4755 C.ar    1  UNL1        0.0857
      4 C          61.5287   85.7706   10.2275 C.ar    1  UNL1        0.0989
      5 N          61.0112   86.9980    9.5379 N.ar    1  UNL1       -0.2906
      6 C          60.1819   87.1803    8.3014 C.ar    1  UNL1        0.0567
      7 C          59.6536   86.0839    7.4246 C.3     1  UNL1        0.0517
      8 C          59.9736   88.6515    8.0956 C.ar    1  UNL1        0.0730
      9 C          59.2004   89.2845    6.9768 C.3     1  UNL1        0.0534
     10 N          60.6742   89.3784    9.2049 N.ar    1  UNL1       -0.2299
     11 C          61.3155   88.3565   10.0963 C.ar    1  UNL1        0.1604
     12 N          62.8678   84.6742   12.1652 N.ar    1  UNL1       -0.2716
     13 C          62.6311   84.4831   13.6340 C.ar    1  UNL1        0.0830
     14 C          63.1484   83.2556   14.3236 C.ar    1  UNL1        0.0192
     15 C          63.9027   82.2192   13.5444 C.ar    1  UNL1        0.0064
     16 C          64.1394   82.4103   12.0756 C.ar    1  UNL1        0.0611
     17 C          63.6220   83.6378   11.3860 C.ar    1  UNL1        0.2649
     18 O          63.8588   83.8289    9.9172 O.2     1  UNL1       -0.2666
     19 N          62.4415   89.8462   11.9027 N.pl3   1  UNL1       -0.3267
     20 H          61.8064   90.5866   11.7698 H       1  UNL1        0.1472
     21 C          63.7135   90.0766   12.6636 C.3     1  UNL1        0.1140
     22 C          65.4071   91.2603   14.8385 C.3     1  UNL1        0.0308
     23 C          65.3876   91.8893   13.4769 C.ar    1  UNL1       -0.0242
     24 C          66.2149   93.1101   13.2027 C.ar    1  UNL1       -0.0045
     25 C          66.1954   93.7391   11.8411 C.ar    1  UNL1       -0.0003
     26 C          65.3486   93.1472   10.7537 C.ar    1  UNL1       -0.0003
     27 C          64.5213   91.9264   11.0278 C.ar    1  UNL1       -0.0029
     28 C          64.5408   91.2974   12.3895 C.ar    1  UNL1       -0.0066
@<TRIPOS>BOND
     1    22    23    1
     2    23    24   ar
     3    24    25   ar
     4    25    26   ar
     5    26    27   ar
     6    27    28   ar
     7    28    21    1
     8    21    19    1
     9    19     1    1
    10     1     2   ar
    11     2     3   ar
    12     3    12    1
    13    12    13   ar
    14    13    14   ar
    15    14    15   ar
    16    15    16   ar
    17    16    17   ar
    18    17    18    2
    19     3     4   ar
    20     4     5   ar
    21     5     6   ar
    22     6     7    1
    23     6     8   ar
    24     8     9    1
    25     8    10   ar
    26    10    11   ar
    27    28    23   ar
    28    11     1   ar
    29    17    12   ar
    30    11     5   ar
    31    19    20    1
@<TRIPOS>MOLECULE
*****
 28 31 0 0 0
SMALL
GASTEIGER

@<TRIPOS>ATOM
      1 C          62.1125   88.3225   11.5305 C.ar    1  UNL1        0.0813
      2 C          62.6419   87.0780   12.1792 C.ar    1  UNL1        0.0365
      3 C          62.3884   85.7393   11.5518 C.ar    1  UNL1        0.0857
      4 C          61.6056   85.6452   10.2758 C.ar    1  UNL1        0.0989
      5 N          61.0762   86.8897    9.6271 N.ar    1  UNL1       -0.2906
      6 C          60.2773   87.1077    8.3764 C.ar    1  UNL1        0.0567
      7 C          59.8022   86.0398    7.4364 C.3     1  UNL1        0.0517
      8 C          60.0370   88.5812    8.2308 C.ar    1  UNL1        0.0730
      9 C          59.2794   89.2454    7.1195 C.3     1  UNL1        0.0534
     10 N          60.6874   89.2738    9.3915 N.ar    1  UNL1       -0.2299
     11 C          61.3296   88.2284   10.2545 C.ar    1  UNL1        0.1604
     12 N          62.9178   84.4947   12.2005 N.ar    1  UNL1       -0.2716
     13 C          62.6702   84.2455   13.6588 C.ar    1  UNL1        0.0830
     14 C          63.1996   83.0010   14.3075 C.ar    1  UNL1        0.0192
     15 C          63.9766   82.0055   13.4979 C.ar    1  UNL1        0.0064
     16 C          64.2242   82.2546   12.0396 C.ar    1  UNL1        0.0611
     17 C          63.6948   83.4993   11.3909 C.ar    1  UNL1        0.2649
     18 O          63.9423   83.7484    9.9326 O.2     1  UNL1       -0.2666
     19 N          62.3659   89.6613   12.1579 N.pl3   1  UNL1       -0.3267
     20 H          61.8076   89.9665   12.9092 H       1  UNL1        0.1472
     21 C          63.4700   90.5350   11.6406 C.3     1  UNL1        0.1140
     22 C          65.2063   92.7935   10.7001 C.3     1  UNL1        0.0308
     23 C          65.2677   92.3456   12.1303 C.ar    1  UNL1       -0.0242
     24 C          66.1973   93.0270   13.0904 C.ar    1  UNL1       -0.0045
     25 C          66.2587   92.5791   14.5207 C.ar    1  UNL1       -0.0003
     26 C          65.3906   91.4499   14.9909 C.ar    1  UNL1       -0.0003
     27 C          64.4610   90.7685   14.0309 C.ar    1  UNL1       -0.0029
     28 C          64.3996   91.2164   12.6006 C.ar    1  UNL1       -0.0066
@<TRIPOS>BOND
     1    22    23    1
     2    23    24   ar
     3    24    25   ar
     4    25    26   ar
     5    26    27   ar
     6    27    28   ar
     7    28    21    1
     8    21    19    1
     9    19     1    1
    10     1     2   ar
    11     2     3   ar
    12     3    12    1
    13    12    13   ar
    14    13    14   ar
    15    14    15   ar
    16    15    16   ar
    17    16    17   ar
    18    17    18    2
    19     3     4   ar
    20     4     5   ar
    21     5     6   ar
    22     6     7    1
    23     6     8   ar
    24     8     9    1
    25     8    10   ar
    26    10    11   ar
    27    28    23   ar
    28    11     1   ar
    29    17    12   ar
    30    11     5   ar
    31    19    20    1
@<TRIPOS>MOLECULE
*****
 28 31 0 0 0
SMALL
GASTEIGER

@<TRIPOS>ATOM
      1 C          62.8989   88.2144   11.9451 C.ar    1  UNL1        0.0813
      2 C          63.4748   89.4009   12.6596 C.ar    1  UNL1        0.0365
      3 C          64.2089   89.2131   13.9541 C.ar    1  UNL1        0.0857
      4 C          64.3672   87.8388   14.5339 C.ar    1  UNL1        0.0989
      5 N          63.7914   86.6523   13.8194 N.ar    1  UNL1       -0.2906
      6 C          63.7889   85.1882   14.1454 C.ar    1  UNL1        0.0567
      7 C          64.4127   84.5527   15.3525 C.3     1  UNL1        0.0517
      8 C          63.0532   84.4711   13.0524 C.ar    1  UNL1        0.0730
      9 C          62.8121   82.9926   12.9747 C.3     1  UNL1        0.0534
     10 N          62.6010   85.4921   12.0509 N.ar    1  UNL1       -0.2299
     11 C          63.0572   86.8402   12.5249 C.ar    1  UNL1        0.1604
     12 N          64.7849   90.3995   14.6687 N.ar    1  UNL1       -0.2716
     13 C          66.0478   91.0359   14.1686 C.ar    1  UNL1        0.0830
     14 C          66.6237   92.2223   14.8832 C.ar    1  UNL1        0.0192
     15 C          65.9367   92.7725   16.0979 C.ar    1  UNL1        0.0064
     16 C          64.6738   92.1361   16.5980 C.ar    1  UNL1        0.0611
     17 C          64.0979   90.9496   15.8833 C.ar    1  UNL1        0.2649
     18 O          62.8350   90.3133   16.3834 O.2     1  UNL1       -0.2666
     19 N          62.1646   88.4022   10.6505 N.pl3   1  UNL1       -0.3267
     20 H          62.3584   89.1834   10.0836 H       1  UNL1        0.1472
     21 C          61.1352   87.3998   10.2199 C.3     1  UNL1        0.1140
     22 C          58.9903   86.9596    8.1692 C.3     1  UNL1        0.0308
     23 C          60.3259   86.2952    8.0120 C.ar    1  UNL1       -0.0242
     24 C          60.5891   85.4108    6.8294 C.ar    1  UNL1       -0.0045
     25 C          61.9247   84.7464    6.6722 C.ar    1  UNL1       -0.0003
     26 C          62.9971   84.9665    7.6975 C.ar    1  UNL1       -0.0003
     27 C          62.7340   85.8509    8.8801 C.ar    1  UNL1       -0.0029
     28 C          61.3984   86.5153    9.0374 C.ar    1  UNL1       -0.0066
@<TRIPOS>BOND
     1    22    23    1
     2    23    24   ar
     3    24    25   ar
     4    25    26   ar
     5    26    27   ar
     6    27    28   ar
     7    28    21    1
     8    21    19    1
     9    19     1    1
    10     1     2   ar
    11     2     3   ar
    12     3    12    1
    13    12    13   ar
    14    13    14   ar
    15    14    15   ar
    16    15    16   ar
    17    16    17   ar
    18    17    18    2
    19     3     4   ar
    20     4     5   ar
    21     5     6   ar
    22     6     7    1
    23     6     8   ar
    24     8     9    1
    25     8    10   ar
    26    10    11   ar
    27    28    23   ar
    28    11     1   ar
    29    17    12   ar
    30    11     5   ar
    31    19    20    1
