@<TRIPOS>MOLECULE
*****
 24 26 0 0 0
SMALL
GASTEIGER

@<TRIPOS>ATOM
      1 C          62.0218   86.7537   10.8885 C.3     1  UNL1        0.0847
      2 N          62.4646   88.1745   11.0770 N.3     1  UNL1       -0.2676
      3 C          63.1484   88.5845   12.3476 C.3     1  UNL1        0.0896
      4 C          63.5913   90.0052   12.5362 C.3     1  UNL1        0.0862
      5 N          63.3503   91.0158   11.4543 N.3     1  UNL1       -0.2951
      6 C          62.6665   90.6057   10.1837 C.3     1  UNL1        0.0862
      7 C          62.2236   89.1851    9.9951 C.3     1  UNL1        0.0896
      8 H          64.2625   91.3882   11.1907 H       1  UNL1        0.1233
      9 C          61.8072   86.2122    9.5062 C.ar    1  UNL1       -0.0075
     10 C          62.9415   85.5620    8.7709 C.ar    1  UNL1       -0.0030
     11 C          62.7269   85.0205    7.3886 C.ar    1  UNL1       -0.0003
     12 C          61.3780   85.1292    6.7416 C.ar    1  UNL1       -0.0000
     13 C          60.2437   85.7794    7.4769 C.ar    1  UNL1       -0.0003
     14 C          60.4583   86.3209    8.8591 C.ar    1  UNL1       -0.0030
     15 C          61.7936   85.8746   12.0822 C.3     1  UNL1        0.0499
     16 C          63.5677   84.6840   13.5605 C.ar    1  UNL1        0.1346
     17 C          64.4735   83.5160   13.8158 C.ar    1  UNL1        0.0366
     18 C          64.5110   82.3705   12.8482 C.ar    1  UNL1        0.0031
     19 C          63.6428   82.3930   11.6252 C.ar    1  UNL1       -0.0001
     20 C          62.7370   83.5610   11.3699 C.ar    1  UNL1       -0.0012
     21 C          62.6994   84.7065   12.3375 C.ar    1  UNL1        0.0135
     22 O          63.5300   85.8296   14.5282 O.3     1  UNL1       -0.4758
     23 C          63.0603   86.3296   17.0340 C.3     1  UNL1        0.0512
     24 C          63.8339   85.5965   15.9785 C.3     1  UNL1        0.2055
@<TRIPOS>BOND
     1    23    24    1
     2    24    22    1
     3    22    16    1
     4    16    17   ar
     5    17    18   ar
     6    18    19   ar
     7    19    20   ar
     8    20    21   ar
     9    21    15    1
    10     1    15    1
    11     1     9    1
    12     9    10   ar
    13    10    11   ar
    14    11    12   ar
    15    12    13   ar
    16    13    14   ar
    17     1     2    1
    18     2     3    1
    19     3     4    1
    20     4     5    1
    21     5     6    1
    22     6     7    1
    23    21    16   ar
    24    14     9   ar
    25     7     2    1
    26     5     8    1
@<TRIPOS>MOLECULE
*****
 24 26 0 0 0
SMALL
GASTEIGER

@<TRIPOS>ATOM
      1 C          61.4171   87.7090   10.6542 C.3     1  UNL1        0.0847
      2 N          60.5655   87.8246    9.4247 N.3     1  UNL1       -0.2676
      3 C          59.9336   86.5999    8.8323 C.3     1  UNL1        0.0896
      4 C          59.0821   86.7154    7.6029 C.3     1  UNL1        0.0862
      5 N          58.8624   88.0556    6.9659 N.3     1  UNL1       -0.2951
      6 C          59.4943   89.2802    7.5584 C.3     1  UNL1        0.0862
      7 C          60.3459   89.1647    8.7878 C.3     1  UNL1        0.0896
      8 H          57.8554   88.2173    6.9602 H       1  UNL1        0.1233
      9 C          62.2898   88.8550   11.0725 C.ar    1  UNL1       -0.0075
     10 C          62.9403   88.8480   12.4241 C.ar    1  UNL1       -0.0030
     11 C          63.8130   89.9941   12.8424 C.ar    1  UNL1       -0.0003
     12 C          64.0351   91.1472   11.9092 C.ar    1  UNL1       -0.0000
     13 C          63.3846   91.1542   10.5576 C.ar    1  UNL1       -0.0003
     14 C          62.5120   90.0082   10.1392 C.ar    1  UNL1       -0.0030
     15 C          61.3960   86.4474   11.4653 C.3     1  UNL1        0.0499
     16 C          62.9958   84.5890   12.3239 C.ar    1  UNL1        0.1346
     17 C          63.9920   83.5024   12.0467 C.ar    1  UNL1        0.0366
     18 C          64.3845   83.1875   10.6337 C.ar    1  UNL1        0.0031
     19 C          63.7809   83.9592    9.4978 C.ar    1  UNL1       -0.0001
     20 C          62.7848   85.0458    9.7750 C.ar    1  UNL1       -0.0012
     21 C          62.3922   85.3607   11.1881 C.ar    1  UNL1        0.0135
     22 O          62.6032   84.9040   13.7370 O.3     1  UNL1       -0.4758
     23 C          64.4756   86.3645   14.7908 C.3     1  UNL1        0.0512
     24 C          63.6603   85.1055   14.7819 C.3     1  UNL1        0.2055
@<TRIPOS>BOND
     1    23    24    1
     2    24    22    1
     3    22    16    1
     4    16    17   ar
     5    17    18   ar
     6    18    19   ar
     7    19    20   ar
     8    20    21   ar
     9    21    15    1
    10     1    15    1
    11     1     9    1
    12     9    10   ar
    13    10    11   ar
    14    11    12   ar
    15    12    13   ar
    16    13    14   ar
    17     1     2    1
    18     2     3    1
    19     3     4    1
    20     4     5    1
    21     5     6    1
    22     6     7    1
    23    21    16   ar
    24    14     9   ar
    25     7     2    1
    26     5     8    1
@<TRIPOS>MOLECULE
*****
 24 26 0 0 0
SMALL
GASTEIGER

@<TRIPOS>ATOM
      1 C          62.0683   86.3903   11.2677 C.3     1  UNL1        0.0847
      2 N          62.7711   85.4414   12.1928 N.3     1  UNL1       -0.2676
      3 C          63.5851   85.9725   13.3352 C.3     1  UNL1        0.0896
      4 C          64.2879   85.0237   14.2603 C.3     1  UNL1        0.0862
      5 N          64.1765   83.5437   14.0430 N.3     1  UNL1       -0.2951
      6 C          63.3624   83.0126   12.9006 C.3     1  UNL1        0.0862
      7 C          62.6597   83.9614   11.9755 C.3     1  UNL1        0.0896
      8 H          63.7791   83.1499   14.8959 H       1  UNL1        0.1233
      9 C          61.8702   86.0242    9.8266 C.ar    1  UNL1       -0.0075
     10 C          62.9783   85.3634    9.0615 C.ar    1  UNL1       -0.0030
     11 C          62.7801   84.9973    7.6203 C.ar    1  UNL1       -0.0003
     12 C          61.4739   85.2921    6.9444 C.ar    1  UNL1       -0.0000
     13 C          60.3658   85.9530    7.7096 C.ar    1  UNL1       -0.0003
     14 C          60.5639   86.3190    9.1506 C.ar    1  UNL1       -0.0030
     15 C          61.5637   87.7052   11.7837 C.3     1  UNL1        0.0499
     16 C          63.1396   89.6060   12.5923 C.ar    1  UNL1        0.1346
     17 C          63.9058   90.8649   12.3135 C.ar    1  UNL1        0.0366
     18 C          63.8624   91.4822   10.9471 C.ar    1  UNL1        0.0031
     19 C          63.0528   90.8405    9.8596 C.ar    1  UNL1       -0.0001
     20 C          62.2866   89.5815   10.1384 C.ar    1  UNL1       -0.0012
     21 C          62.3300   88.9643   11.5048 C.ar    1  UNL1        0.0135
     22 O          63.1829   88.9886   13.9588 O.3     1  UNL1       -0.4758
     23 C          63.1591   89.3616   16.5298 C.3     1  UNL1        0.0512
     24 C          63.5213   89.8318   15.1523 C.3     1  UNL1        0.2055
@<TRIPOS>BOND
     1    23    24    1
     2    24    22    1
     3    22    16    1
     4    16    17   ar
     5    17    18   ar
     6    18    19   ar
     7    19    20   ar
     8    20    21   ar
     9    21    15    1
    10     1    15    1
    11     1     9    1
    12     9    10   ar
    13    10    11   ar
    14    11    12   ar
    15    12    13   ar
    16    13    14   ar
    17     1     2    1
    18     2     3    1
    19     3     4    1
    20     4     5    1
    21     5     6    1
    22     6     7    1
    23    21    16   ar
    24    14     9   ar
    25     7     2    1
    26     5     8    1
@<TRIPOS>MOLECULE
*****
 24 26 0 0 0
SMALL
GASTEIGER

@<TRIPOS>ATOM
      1 C          61.4042   87.4375   10.5362 C.3     1  UNL1        0.0847
      2 N          60.5245   87.7141    9.3530 N.3     1  UNL1       -0.2676
      3 C          60.4085   89.1093    8.8146 C.3     1  UNL1        0.0896
      4 C          59.5289   89.3860    7.6316 C.3     1  UNL1        0.0862
      5 N          58.7653   88.2674    6.9869 N.3     1  UNL1       -0.2951
      6 C          58.8813   86.8722    7.5253 C.3     1  UNL1        0.0862
      7 C          59.7609   86.5955    8.7083 C.3     1  UNL1        0.0896
      8 H          59.0618   88.2323    6.0116 H       1  UNL1        0.1233
      9 C          62.1971   86.1658   10.6002 C.ar    1  UNL1       -0.0075
     10 C          62.4469   85.5034   11.9226 C.ar    1  UNL1       -0.0030
     11 C          63.2398   84.2317   11.9866 C.ar    1  UNL1       -0.0003
     12 C          63.7830   83.6225   10.7282 C.ar    1  UNL1       -0.0000
     13 C          63.5333   84.2848    9.4057 C.ar    1  UNL1       -0.0003
     14 C          62.7404   85.5565    9.3417 C.ar    1  UNL1       -0.0030
     15 C          61.4909   88.4325   11.6552 C.3     1  UNL1        0.0499
     16 C          63.2742   89.9332   12.8032 C.ar    1  UNL1        0.1346
     17 C          64.2672   91.0553   12.7338 C.ar    1  UNL1        0.0366
     18 C          64.4699   91.7989   11.4470 C.ar    1  UNL1        0.0031
     19 C          63.6796   91.4204   10.2296 C.ar    1  UNL1       -0.0001
     20 C          62.6866   90.2983   10.2990 C.ar    1  UNL1       -0.0012
     21 C          62.4839   89.5547   11.5858 C.ar    1  UNL1        0.0135
     22 O          63.0715   89.1896   14.0901 O.3     1  UNL1       -0.4758
     23 C          64.4460   87.0534   14.6355 C.3     1  UNL1        0.0512
     24 C          64.2371   88.5328   14.7684 C.3     1  UNL1        0.2055
@<TRIPOS>BOND
     1    23    24    1
     2    24    22    1
     3    22    16    1
     4    16    17   ar
     5    17    18   ar
     6    18    19   ar
     7    19    20   ar
     8    20    21   ar
     9    21    15    1
    10     1    15    1
    11     1     9    1
    12     9    10   ar
    13    10    11   ar
    14    11    12   ar
    15    12    13   ar
    16    13    14   ar
    17     1     2    1
    18     2     3    1
    19     3     4    1
    20     4     5    1
    21     5     6    1
    22     6     7    1
    23    21    16   ar
    24    14     9   ar
    25     7     2    1
    26     5     8    1
@<TRIPOS>MOLECULE
*****
 24 26 0 0 0
SMALL
GASTEIGER

@<TRIPOS>ATOM
      1 C          63.3474   85.3161   13.0731 C.3     1  UNL1        0.0847
      2 N          62.6635   86.1825   12.0573 N.3     1  UNL1       -0.2676
      3 C          61.6636   85.5842   11.1127 C.3     1  UNL1        0.0896
      4 C          60.9797   86.4506   10.0970 C.3     1  UNL1        0.0862
      5 N          61.2957   87.9152   10.0260 N.3     1  UNL1       -0.2951
      6 C          62.2955   88.5134   10.9706 C.3     1  UNL1        0.0862
      7 C          62.9794   87.6471   11.9863 C.3     1  UNL1        0.0896
      8 H          60.4176   88.4132   10.1723 H       1  UNL1        0.1233
      9 C          63.0716   83.8421   13.1091 C.ar    1  UNL1       -0.0075
     10 C          62.1842   83.2710   14.1751 C.ar    1  UNL1       -0.0030
     11 C          61.9084   81.7969   14.2111 C.ar    1  UNL1       -0.0003
     12 C          62.5200   80.8941   13.1811 C.ar    1  UNL1       -0.0000
     13 C          63.4075   81.4653   12.1152 C.ar    1  UNL1       -0.0003
     14 C          63.6833   82.9392   12.0792 C.ar    1  UNL1       -0.0030
     15 C          64.3071   85.9237   14.0527 C.3     1  UNL1        0.0499
     16 C          63.8297   88.0264   15.5022 C.ar    1  UNL1        0.1346
     17 C          63.3176   88.6403   16.7714 C.ar    1  UNL1        0.0366
     18 C          62.7709   87.7656   17.8603 C.ar    1  UNL1        0.0031
     19 C          62.7362   86.2768   17.6801 C.ar    1  UNL1       -0.0001
     20 C          63.2483   85.6629   16.4109 C.ar    1  UNL1       -0.0012
     21 C          63.7950   86.5376   15.3220 C.ar    1  UNL1        0.0135
     22 O          64.3765   88.9012   14.4132 O.3     1  UNL1       -0.4758
     23 C          65.6802   91.1466   14.5034 C.3     1  UNL1        0.0512
     24 C          64.3866   90.3915   14.5824 C.3     1  UNL1        0.2055
@<TRIPOS>BOND
     1    23    24    1
     2    24    22    1
     3    22    16    1
     4    16    17   ar
     5    17    18   ar
     6    18    19   ar
     7    19    20   ar
     8    20    21   ar
     9    21    15    1
    10     1    15    1
    11     1     9    1
    12     9    10   ar
    13    10    11   ar
    14    11    12   ar
    15    12    13   ar
    16    13    14   ar
    17     1     2    1
    18     2     3    1
    19     3     4    1
    20     4     5    1
    21     5     6    1
    22     6     7    1
    23    21    16   ar
    24    14     9   ar
    25     7     2    1
    26     5     8    1
@<TRIPOS>MOLECULE
*****
 24 26 0 0 0
SMALL
GASTEIGER

@<TRIPOS>ATOM
      1 C          62.4304   87.0882   11.8208 C.3     1  UNL1        0.0847
      2 N          63.1737   86.2638   12.8298 N.3     1  UNL1       -0.2676
      3 C          63.9720   86.9370   13.9066 C.3     1  UNL1        0.0896
      4 C          64.7154   86.1127   14.9156 C.3     1  UNL1        0.0862
      5 N          64.6605   84.6153   14.8476 N.3     1  UNL1       -0.2951
      6 C          63.8622   83.9422   13.7707 C.3     1  UNL1        0.0862
      7 C          63.1189   84.7664   12.7618 C.3     1  UNL1        0.0896
      8 H          64.2826   84.2938   15.7388 H       1  UNL1        0.1233
      9 C          62.7870   88.5316   11.6223 C.ar    1  UNL1       -0.0075
     10 C          63.4235   89.3071   12.7374 C.ar    1  UNL1       -0.0030
     11 C          63.7801   90.7506   12.5389 C.ar    1  UNL1       -0.0003
     12 C          63.5002   91.4184   11.2253 C.ar    1  UNL1       -0.0000
     13 C          62.8637   90.6429   10.1102 C.ar    1  UNL1       -0.0003
     14 C          62.5071   89.1995   10.3087 C.ar    1  UNL1       -0.0030
     15 C          61.3304   86.4691   11.0104 C.3     1  UNL1        0.0499
     16 C          60.6201   86.1407    8.5330 C.ar    1  UNL1        0.1346
     17 C          60.9069   85.6134    7.1583 C.ar    1  UNL1        0.0366
     18 C          62.1908   84.8871    6.8865 C.ar    1  UNL1        0.0031
     19 C          63.1880   84.6882    7.9893 C.ar    1  UNL1       -0.0001
     20 C          62.9012   85.2155    9.3639 C.ar    1  UNL1       -0.0012
     21 C          61.6172   85.9417    9.6357 C.ar    1  UNL1        0.0135
     22 O          59.3360   86.8670    8.8049 O.3     1  UNL1       -0.4758
     23 C          59.7734   89.1443    7.6334 C.3     1  UNL1        0.0512
     24 C          58.8847   87.9624    7.8850 C.3     1  UNL1        0.2055
@<TRIPOS>BOND
     1    23    24    1
     2    24    22    1
     3    22    16    1
     4    16    17   ar
     5    17    18   ar
     6    18    19   ar
     7    19    20   ar
     8    20    21   ar
     9    21    15    1
    10     1    15    1
    11     1     9    1
    12     9    10   ar
    13    10    11   ar
    14    11    12   ar
    15    12    13   ar
    16    13    14   ar
    17     1     2    1
    18     2     3    1
    19     3     4    1
    20     4     5    1
    21     5     6    1
    22     6     7    1
    23    21    16   ar
    24    14     9   ar
    25     7     2    1
    26     5     8    1
@<TRIPOS>MOLECULE
*****
 24 26 0 0 0
SMALL
GASTEIGER

@<TRIPOS>ATOM
      1 C          61.5783   86.4429   10.9305 C.3     1  UNL1        0.0847
      2 N          61.4962   87.9171   11.1955 N.3     1  UNL1       -0.2676
      3 C          60.1599   88.5964   11.2482 C.3     1  UNL1        0.0896
      4 C          60.0778   90.0705   11.5132 C.3     1  UNL1        0.0862
      5 N          61.3320   90.8653   11.7255 N.3     1  UNL1       -0.2951
      6 C          62.6684   90.1860   11.6729 C.3     1  UNL1        0.0862
      7 C          62.7505   88.7119   11.4079 C.3     1  UNL1        0.0896
      8 H          61.2560   91.2945   12.6477 H       1  UNL1        0.1233
      9 C          61.6886   85.9391    9.5220 C.ar    1  UNL1       -0.0075
     10 C          60.5432   86.1170    8.5700 C.ar    1  UNL1       -0.0030
     11 C          60.6536   85.6131    7.1614 C.ar    1  UNL1       -0.0003
     12 C          61.9093   84.9315    6.7049 C.ar    1  UNL1       -0.0000
     13 C          63.0547   84.7536    7.6570 C.ar    1  UNL1       -0.0003
     14 C          62.9444   85.2574    9.0655 C.ar    1  UNL1       -0.0030
     15 C          61.5500   85.4726   12.0741 C.3     1  UNL1        0.0499
     16 C          63.3967   83.7694   12.7368 C.ar    1  UNL1        0.1346
     17 C          64.6603   83.4461   13.4775 C.ar    1  UNL1        0.0366
     18 C          65.3410   84.5027   14.2961 C.ar    1  UNL1        0.0031
     19 C          64.7581   85.8826   14.3741 C.ar    1  UNL1       -0.0001
     20 C          63.4945   86.2059   13.6334 C.ar    1  UNL1       -0.0012
     21 C          62.8137   85.1493   12.8148 C.ar    1  UNL1        0.0135
     22 O          62.7159   82.7128   11.9181 O.3     1  UNL1       -0.4758
     23 C          61.6616   81.1044   13.6649 C.3     1  UNL1        0.0512
     24 C          62.5433   81.3298   12.4725 C.3     1  UNL1        0.2055
@<TRIPOS>BOND
     1    23    24    1
     2    24    22    1
     3    22    16    1
     4    16    17   ar
     5    17    18   ar
     6    18    19   ar
     7    19    20   ar
     8    20    21   ar
     9    21    15    1
    10     1    15    1
    11     1     9    1
    12     9    10   ar
    13    10    11   ar
    14    11    12   ar
    15    12    13   ar
    16    13    14   ar
    17     1     2    1
    18     2     3    1
    19     3     4    1
    20     4     5    1
    21     5     6    1
    22     6     7    1
    23    21    16   ar
    24    14     9   ar
    25     7     2    1
    26     5     8    1
@<TRIPOS>MOLECULE
*****
 24 26 0 0 0
SMALL
GASTEIGER

@<TRIPOS>ATOM
      1 C          66.1439   92.7254   12.3539 C.3     1  UNL1        0.0847
      2 N          66.8336   93.0039   11.0513 N.3     1  UNL1       -0.2676
      3 C          66.5778   94.2928   10.3278 C.3     1  UNL1        0.0896
      4 C          67.2674   94.5713    9.0252 C.3     1  UNL1        0.0862
      5 N          68.2129   93.5610    8.4461 N.3     1  UNL1       -0.2951
      6 C          68.4687   92.2721    9.1696 C.3     1  UNL1        0.0862
      7 C          67.7790   91.9936   10.4722 C.3     1  UNL1        0.0896
      8 H          69.1150   94.0260    8.3450 H       1  UNL1        0.1233
      9 C          66.9462   92.5964   13.6147 C.ar    1  UNL1       -0.0075
     10 C          66.3994   93.1221   14.9088 C.ar    1  UNL1       -0.0030
     11 C          67.2017   92.9930   16.1696 C.ar    1  UNL1       -0.0003
     12 C          68.5508   92.3382   16.1364 C.ar    1  UNL1       -0.0000
     13 C          69.0977   91.8125   14.8423 C.ar    1  UNL1       -0.0003
     14 C          68.2954   91.9416   13.5815 C.ar    1  UNL1       -0.0030
     15 C          64.6520   92.5760   12.3957 C.3     1  UNL1        0.0499
     16 C          64.0285   90.1307   13.0137 C.ar    1  UNL1        0.1346
     17 C          63.3956   88.8201   12.6508 C.ar    1  UNL1        0.0366
     18 C          62.7533   88.6442   11.3067 C.ar    1  UNL1        0.0031
     19 C          62.7439   89.7788   10.3257 C.ar    1  UNL1       -0.0001
     20 C          63.3768   91.0894   10.6886 C.ar    1  UNL1       -0.0012
     21 C          64.0191   91.2653   12.0327 C.ar    1  UNL1        0.0135
     22 O          64.6708   90.3067   14.3578 O.3     1  UNL1       -0.4758
     23 C          63.1924   89.4714   16.3242 C.3     1  UNL1        0.0512
     24 C          63.8241   90.5978   15.5613 C.3     1  UNL1        0.2055
@<TRIPOS>BOND
     1    23    24    1
     2    24    22    1
     3    22    16    1
     4    16    17   ar
     5    17    18   ar
     6    18    19   ar
     7    19    20   ar
     8    20    21   ar
     9    21    15    1
    10     1    15    1
    11     1     9    1
    12     9    10   ar
    13    10    11   ar
    14    11    12   ar
    15    12    13   ar
    16    13    14   ar
    17     1     2    1
    18     2     3    1
    19     3     4    1
    20     4     5    1
    21     5     6    1
    22     6     7    1
    23    21    16   ar
    24    14     9   ar
    25     7     2    1
    26     5     8    1
@<TRIPOS>MOLECULE
*****
 24 26 0 0 0
SMALL
GASTEIGER

@<TRIPOS>ATOM
      1 C          66.0334   92.6327   12.3826 C.3     1  UNL1        0.0847
      2 N          66.8162   92.5214   13.6574 N.3     1  UNL1       -0.2676
      3 C          66.1907   92.9260   14.9593 C.3     1  UNL1        0.0896
      4 C          66.9734   92.8148   16.2340 C.3     1  UNL1        0.0862
      5 N          68.3816   92.2990   16.2068 N.3     1  UNL1       -0.2951
      6 C          69.0071   91.8944   14.9049 C.3     1  UNL1        0.0862
      7 C          68.2244   92.0056   13.6301 C.3     1  UNL1        0.0896
      8 H          68.4066   91.4789   16.8129 H       1  UNL1        0.1233
      9 C          66.7412   92.9105   11.0897 C.ar    1  UNL1       -0.0075
     10 C          66.4607   94.1782   10.3384 C.ar    1  UNL1       -0.0030
     11 C          67.1686   94.4561    9.0454 C.ar    1  UNL1       -0.0003
     12 C          68.1569   93.4663    8.5037 C.ar    1  UNL1       -0.0000
     13 C          68.4374   92.1986    9.2549 C.ar    1  UNL1       -0.0003
     14 C          67.7296   91.9207   10.5479 C.ar    1  UNL1       -0.0030
     15 C          64.5428   92.4660   12.4009 C.3     1  UNL1        0.0499
     16 C          63.9243   90.0033   12.9510 C.ar    1  UNL1        0.1346
     17 C          63.3108   88.6962   12.5449 C.ar    1  UNL1        0.0366
     18 C          62.7021   88.5447   11.1823 C.ar    1  UNL1        0.0031
     19 C          62.7071   89.7002   10.2259 C.ar    1  UNL1       -0.0001
     20 C          63.3206   91.0073   10.6321 C.ar    1  UNL1       -0.0012
     21 C          63.9292   91.1589   11.9947 C.ar    1  UNL1        0.0135
     22 O          64.5329   90.1549   14.3137 O.3     1  UNL1       -0.4758
     23 C          63.2093   89.2819   16.3718 C.3     1  UNL1        0.0512
     24 C          63.6560   90.4191   15.5016 C.3     1  UNL1        0.2055
@<TRIPOS>BOND
     1    23    24    1
     2    24    22    1
     3    22    16    1
     4    16    17   ar
     5    17    18   ar
     6    18    19   ar
     7    19    20   ar
     8    20    21   ar
     9    21    15    1
    10     1    15    1
    11     1     9    1
    12     9    10   ar
    13    10    11   ar
    14    11    12   ar
    15    12    13   ar
    16    13    14   ar
    17     1     2    1
    18     2     3    1
    19     3     4    1
    20     4     5    1
    21     5     6    1
    22     6     7    1
    23    21    16   ar
    24    14     9   ar
    25     7     2    1
    26     5     8    1
