@<TRIPOS>MOLECULE
*****
 26 28 0 0 0
SMALL
GASTEIGER

@<TRIPOS>ATOM
      1 C          62.7756   85.7394   12.3038 C.ar    1  UNL1        0.1377
      2 C          61.6165   85.8361   11.3567 C.ar    1  UNL1        0.0689
      3 C          61.1515   87.1784   10.8750 C.ar    1  UNL1        0.1401
      4 N          61.8458   88.4240   11.3404 N.ar    1  UNL1       -0.1947
      5 C          63.0049   88.3273   12.2875 C.ar    1  UNL1        0.2550
      6 N          63.4698   86.9850   12.7692 N.ar    1  UNL1       -0.1949
      7 N          63.6991   89.5729   12.7528 N.ar    1  UNL1       -0.2008
      8 N          64.3881   89.7577   14.0724 N.ar    1  UNL1       -0.1673
      9 C          64.9411   91.1514   14.1154 C.ar    1  UNL1        0.0806
     10 C          65.7068   91.7614   15.2519 C.3     1  UNL1        0.0540
     11 C          64.5938   91.8280   12.8225 C.ar    1  UNL1        0.0313
     12 C          63.8263   90.8524   11.9804 C.ar    1  UNL1        0.0651
     13 C          63.2815   91.1110   10.6069 C.3     1  UNL1        0.0523
     14 C          63.0396   83.8363   14.1622 C.3     1  UNL1        0.1037
     15 C          63.6630   82.4726   14.2027 C.3     1  UNL1        0.0241
     16 C          64.2492   82.1905   12.8510 C.3     1  UNL1        0.0232
     17 C          63.9881   83.3800   11.9752 C.3     1  UNL1        0.0922
     18 N          63.2406   84.3971   12.7856 N.pl3   1  UNL1       -0.2922
     19 C          62.3385   84.5193   15.2988 C.3     1  UNL1        0.1619
     20 C          62.5578   86.1219   17.3319 C.3     1  UNL1        0.1742
     21 O          62.9498   85.7307   15.9379 O.3     1  UNL1       -0.3493
     22 N          59.9923   87.2752    9.9279 N.am    1  UNL1       -0.2692
     23 C          60.1007   86.6964    8.5483 C.2     1  UNL1        0.2277
     24 C          58.9416   86.7931    7.6012 C.3     1  UNL1        0.0950
     25 O          61.3683   86.0209    8.1158 O.2     1  UNL1       -0.2747
     26 H          59.1604   87.7185   10.2117 H       1  UNL1        0.1563
@<TRIPOS>BOND
     1    20    21    1
     2    21    19    1
     3    14    19    1
     4    14    15    1
     5    15    16    1
     6    16    17    1
     7    17    18    1
     8    18     1    1
     9     1     2   ar
    10     2     3   ar
    11     3    22    1
    12    22    23   am
    13    23    24    1
    14    23    25    2
    15     3     4   ar
    16     4     5   ar
    17     5     7    1
    18     7     8   ar
    19     8     9   ar
    20     9    10    1
    21     9    11   ar
    22    11    12   ar
    23    12    13    1
    24     5     6   ar
    25    18    14    1
    26     6     1   ar
    27    12     7   ar
    28    22    26    1
@<TRIPOS>MOLECULE
*****
 26 28 0 0 0
SMALL
GASTEIGER

@<TRIPOS>ATOM
      1 C          65.6804   93.7312   11.0881 C.ar    1  UNL1        0.1377
      2 C          66.2546   93.7414   12.4737 C.ar    1  UNL1        0.0689
      3 C          65.8430   92.6925   13.4638 C.ar    1  UNL1        0.1401
      4 N          64.8571   91.6335   13.0683 N.ar    1  UNL1       -0.1947
      5 C          64.2828   91.6233   11.6827 C.ar    1  UNL1        0.2550
      6 N          64.6945   92.6722   10.6925 N.ar    1  UNL1       -0.1949
      7 N          63.2969   90.5643   11.2872 N.ar    1  UNL1       -0.2008
      8 N          62.3602   90.6244   10.1171 N.ar    1  UNL1       -0.1673
      9 C          61.5590   89.3565   10.0991 C.ar    1  UNL1        0.0806
     10 C          60.5019   88.9957    9.0979 C.3     1  UNL1        0.0540
     11 C          62.0005   88.5126   11.2580 C.ar    1  UNL1        0.0313
     12 C          63.0746   89.2591   11.9922 C.ar    1  UNL1        0.0651
     13 C          63.7991   88.7838   13.2166 C.3     1  UNL1        0.0523
     14 C          67.1839   94.6495    9.0777 C.3     1  UNL1        0.1037
     15 C          67.2506   95.9324    8.3034 C.3     1  UNL1        0.0241
     16 C          66.2000   96.8560    8.8449 C.3     1  UNL1        0.0232
     17 C          65.4839   96.1438    9.9539 C.3     1  UNL1        0.0922
     18 N          66.0920   94.7801   10.0978 N.pl3   1  UNL1       -0.2922
     19 C          68.0559   93.4471    8.8686 C.3     1  UNL1        0.1619
     20 C          68.4620   91.5940   10.6438 C.3     1  UNL1        0.1742
     21 O          68.8576   92.8945   10.0095 O.3     1  UNL1       -0.3493
     22 N          66.4173   92.7027   14.8496 N.am    1  UNL1       -0.2692
     23 C          67.8909   92.5088   15.0521 C.2     1  UNL1        0.2277
     24 C          68.4651   92.5190   16.4378 C.3     1  UNL1        0.0950
     25 O          68.7901   92.3048   13.8690 O.2     1  UNL1       -0.2747
     26 H          65.8271   92.8366   15.6261 H       1  UNL1        0.1563
@<TRIPOS>BOND
     1    20    21    1
     2    21    19    1
     3    14    19    1
     4    14    15    1
     5    15    16    1
     6    16    17    1
     7    17    18    1
     8    18     1    1
     9     1     2   ar
    10     2     3   ar
    11     3    22    1
    12    22    23   am
    13    23    24    1
    14    23    25    2
    15     3     4   ar
    16     4     5   ar
    17     5     7    1
    18     7     8   ar
    19     8     9   ar
    20     9    10    1
    21     9    11   ar
    22    11    12   ar
    23    12    13    1
    24     5     6   ar
    25    18    14    1
    26     6     1   ar
    27    12     7   ar
    28    22    26    1
@<TRIPOS>MOLECULE
*****
 26 28 0 0 0
SMALL
GASTEIGER

@<TRIPOS>ATOM
      1 C          61.7796   87.3669   10.9020 C.ar    1  UNL1        0.1377
      2 C          62.6196   88.4041   11.5865 C.ar    1  UNL1        0.0689
      3 C          63.4532   88.0288   12.7757 C.ar    1  UNL1        0.1401
      4 N          63.4468   86.6162   13.2804 N.ar    1  UNL1       -0.1947
      5 C          62.6068   85.5790   12.5959 C.ar    1  UNL1        0.2550
      6 N          61.7732   85.9544   11.4067 N.ar    1  UNL1       -0.1949
      7 N          62.6004   84.1665   13.1006 N.ar    1  UNL1       -0.2008
      8 N          62.6673   82.9283   12.2565 N.ar    1  UNL1       -0.1673
      9 C          62.6342   81.7407   13.1722 C.ar    1  UNL1        0.0806
     10 C          62.6804   80.3016   12.7517 C.3     1  UNL1        0.0540
     11 C          62.5469   82.2449   14.5822 C.ar    1  UNL1        0.0313
     12 C          62.5260   83.7441   14.5379 C.ar    1  UNL1        0.0651
     13 C          62.4449   84.6601   15.7230 C.3     1  UNL1        0.0523
     14 C          60.3534   89.0934    9.4424 C.3     1  UNL1        0.1037
     15 C          59.5997   89.0184    8.1477 C.3     1  UNL1        0.0241
     16 C          59.7265   87.6208    7.6178 C.3     1  UNL1        0.0232
     17 C          60.5585   86.8321    8.5850 C.3     1  UNL1        0.0922
     18 N          60.9459   87.7422    9.7127 N.pl3   1  UNL1       -0.2922
     19 C          60.4904   90.3066   10.3138 C.3     1  UNL1        0.1619
     20 C          59.1123   89.4877   12.3584 C.3     1  UNL1        0.1742
     21 O          59.4822   90.5735   11.3919 O.3     1  UNL1       -0.3493
     22 N          64.2932   89.0660   13.4603 N.am    1  UNL1       -0.2692
     23 C          63.6956   89.9258   14.5343 C.2     1  UNL1        0.2277
     24 C          64.5355   90.9630   15.2189 C.3     1  UNL1        0.0950
     25 O          62.2579   89.7483   14.9238 O.2     1  UNL1       -0.2747
     26 H          65.2368   89.1824   13.2046 H       1  UNL1        0.1563
@<TRIPOS>BOND
     1    20    21    1
     2    21    19    1
     3    14    19    1
     4    14    15    1
     5    15    16    1
     6    16    17    1
     7    17    18    1
     8    18     1    1
     9     1     2   ar
    10     2     3   ar
    11     3    22    1
    12    22    23   am
    13    23    24    1
    14    23    25    2
    15     3     4   ar
    16     4     5   ar
    17     5     7    1
    18     7     8   ar
    19     8     9   ar
    20     9    10    1
    21     9    11   ar
    22    11    12   ar
    23    12    13    1
    24     5     6   ar
    25    18    14    1
    26     6     1   ar
    27    12     7   ar
    28    22    26    1
@<TRIPOS>MOLECULE
*****
 26 28 0 0 0
SMALL
GASTEIGER

@<TRIPOS>ATOM
      1 C          62.9715   88.7217   12.0667 C.ar    1  UNL1        0.1377
      2 C          61.8103   88.7372   11.1173 C.ar    1  UNL1        0.0689
      3 C          61.0772   87.4656   10.8084 C.ar    1  UNL1        0.1401
      4 N          61.5052   86.1785   11.4488 N.ar    1  UNL1       -0.1947
      5 C          62.6664   86.1630   12.3982 C.ar    1  UNL1        0.2550
      6 N          63.3995   87.4346   12.7071 N.ar    1  UNL1       -0.1949
      7 N          63.0945   84.8759   13.0387 N.ar    1  UNL1       -0.2008
      8 N          62.6880   83.4982   12.6066 N.ar    1  UNL1       -0.1673
      9 C          63.3465   82.5114   13.5245 C.ar    1  UNL1        0.0806
     10 C          63.2147   81.0188   13.4552 C.3     1  UNL1        0.0540
     11 C          64.1600   83.2792   14.5239 C.ar    1  UNL1        0.0313
     12 C          64.0042   84.7406   14.2236 C.ar    1  UNL1        0.0651
     13 C          64.6456   85.8685   14.9761 C.3     1  UNL1        0.0523
     14 C          64.3243   90.3562   13.6926 C.3     1  UNL1        0.1037
     15 C          64.9495   91.7125   13.5528 C.3     1  UNL1        0.0241
     16 C          64.7162   92.1880   12.1493 C.3     1  UNL1        0.0232
     17 C          63.9469   91.1255   11.4219 C.3     1  UNL1        0.0922
     18 N          63.7046   89.9934   12.3757 N.pl3   1  UNL1       -0.2922
     19 C          64.3196   89.5111   14.9319 C.3     1  UNL1        0.1619
     20 C          63.0474   88.5201   16.9689 C.3     1  UNL1        0.1742
     21 O          63.0353   89.2636   15.6661 O.3     1  UNL1       -0.3493
     22 N          59.9159   87.4810    9.8590 N.am    1  UNL1       -0.2692
     23 C          60.0258   86.7972    8.5285 C.2     1  UNL1        0.2277
     24 C          58.8647   86.8126    7.5791 C.3     1  UNL1        0.0950
     25 O          61.2971   86.0980    8.1473 O.2     1  UNL1       -0.2747
     26 H          59.0816   87.9399   10.1092 H       1  UNL1        0.1563
@<TRIPOS>BOND
     1    20    21    1
     2    21    19    1
     3    14    19    1
     4    14    15    1
     5    15    16    1
     6    16    17    1
     7    17    18    1
     8    18     1    1
     9     1     2   ar
    10     2     3   ar
    11     3    22    1
    12    22    23   am
    13    23    24    1
    14    23    25    2
    15     3     4   ar
    16     4     5   ar
    17     5     7    1
    18     7     8   ar
    19     8     9   ar
    20     9    10    1
    21     9    11   ar
    22    11    12   ar
    23    12    13    1
    24     5     6   ar
    25    18    14    1
    26     6     1   ar
    27    12     7   ar
    28    22    26    1
@<TRIPOS>MOLECULE
*****
 26 28 0 0 0
SMALL
GASTEIGER

@<TRIPOS>ATOM
      1 C          62.0384   87.5182   11.0882 C.ar    1  UNL1        0.1377
      2 C          62.3255   86.1326   11.5859 C.ar    1  UNL1        0.0689
      3 C          63.2048   85.9335   12.7847 C.ar    1  UNL1        0.1401
      4 N          63.7970   87.1200   13.4857 N.ar    1  UNL1       -0.1947
      5 C          63.5100   88.5056   12.9880 C.ar    1  UNL1        0.2550
      6 N          62.6306   88.7046   11.7892 N.ar    1  UNL1       -0.1949
      7 N          64.1022   89.6921   13.6890 N.ar    1  UNL1       -0.2008
      8 N          64.9610   90.7493   13.0608 N.ar    1  UNL1       -0.1673
      9 C          65.3292   91.7403   14.1249 C.ar    1  UNL1        0.0806
     10 C          66.1794   92.9616   13.9361 C.3     1  UNL1        0.0540
     11 C          64.6980   91.2956   15.4109 C.ar    1  UNL1        0.0313
     12 C          63.9397   90.0297   15.1415 C.ar    1  UNL1        0.0651
     13 C          63.1563   89.2401   16.1479 C.3     1  UNL1        0.0523
     14 C          60.4409   88.9822    9.5230 C.3     1  UNL1        0.1037
     15 C          59.6815   88.7331    8.2536 C.3     1  UNL1        0.0241
     16 C          59.9303   87.3141    7.8354 C.3     1  UNL1        0.0232
     17 C          60.8434   86.6864    8.8464 C.3     1  UNL1        0.0922
     18 N          61.1590   87.7173    9.8893 N.pl3   1  UNL1       -0.2922
     19 C          60.4760   90.2701   10.2910 C.3     1  UNL1        0.1619
     20 C          59.1029   89.4195   12.3260 C.3     1  UNL1        0.1742
     21 O          59.4750   90.5219   11.3794 O.3     1  UNL1       -0.3493
     22 N          63.4919   84.5479   13.2824 N.am    1  UNL1       -0.2692
     23 C          62.7518   84.0096   14.4709 C.2     1  UNL1        0.2277
     24 C          63.0388   82.6241   14.9687 C.3     1  UNL1        0.0950
     25 O          61.7245   84.8569   15.1616 O.2     1  UNL1       -0.2747
     26 H          64.1661   83.9919   12.8291 H       1  UNL1        0.1563
@<TRIPOS>BOND
     1    20    21    1
     2    21    19    1
     3    14    19    1
     4    14    15    1
     5    15    16    1
     6    16    17    1
     7    17    18    1
     8    18     1    1
     9     1     2   ar
    10     2     3   ar
    11     3    22    1
    12    22    23   am
    13    23    24    1
    14    23    25    2
    15     3     4   ar
    16     4     5   ar
    17     5     7    1
    18     7     8   ar
    19     8     9   ar
    20     9    10    1
    21     9    11   ar
    22    11    12   ar
    23    12    13    1
    24     5     6   ar
    25    18    14    1
    26     6     1   ar
    27    12     7   ar
    28    22    26    1
@<TRIPOS>MOLECULE
*****
 26 28 0 0 0
SMALL
GASTEIGER

@<TRIPOS>ATOM
      1 C          64.4005   91.1333   12.3249 C.ar    1  UNL1        0.1377
      2 C          64.5743   90.4409   13.6440 C.ar    1  UNL1        0.0689
      3 C          63.8422   89.1615   13.9217 C.ar    1  UNL1        0.1401
      4 N          62.9363   88.5745   12.8801 N.ar    1  UNL1       -0.1947
      5 C          62.7625   89.2670   11.5609 C.ar    1  UNL1        0.2550
      6 N          63.4946   90.5464   11.2833 N.ar    1  UNL1       -0.1949
      7 N          61.8566   88.6801   10.5194 N.ar    1  UNL1       -0.2008
      8 N          62.1229   87.4418    9.7157 N.ar    1  UNL1       -0.1673
      9 C          60.9562   87.2248    8.7983 C.ar    1  UNL1        0.0806
     10 C          60.8037   86.1010    7.8166 C.3     1  UNL1        0.0540
     11 C          59.9688   88.3289    9.0349 C.ar    1  UNL1        0.0313
     12 C          60.5253   89.2283   10.0986 C.ar    1  UNL1        0.0651
     13 C          59.8661   90.4597   10.6455 C.3     1  UNL1        0.0523
     14 C          65.9510   93.1923   13.0334 C.3     1  UNL1        0.1037
     15 C          66.4991   94.3985   12.3303 C.3     1  UNL1        0.0241
     16 C          66.0195   94.3646   10.9093 C.3     1  UNL1        0.0232
     17 C          65.1750   93.1373   10.7344 C.3     1  UNL1        0.0922
     18 N          65.1327   92.4127   12.0472 N.pl3   1  UNL1       -0.2922
     19 C          66.1809   92.8293   14.4706 C.3     1  UNL1        0.1619
     20 C          68.6559   92.8603   15.2600 C.3     1  UNL1        0.1742
     21 O          67.2907   93.4813   15.2406 O.3     1  UNL1       -0.3493
     22 N          64.0160   88.4690   15.2409 N.am    1  UNL1       -0.2692
     23 C          62.9652   88.6038   16.3029 C.2     1  UNL1        0.2277
     24 C          63.1389   87.9114   17.6220 C.3     1  UNL1        0.0950
     25 O          61.7407   89.4312   16.0456 O.2     1  UNL1       -0.2747
     26 H          64.8196   87.9259   15.4097 H       1  UNL1        0.1563
@<TRIPOS>BOND
     1    20    21    1
     2    21    19    1
     3    14    19    1
     4    14    15    1
     5    15    16    1
     6    16    17    1
     7    17    18    1
     8    18     1    1
     9     1     2   ar
    10     2     3   ar
    11     3    22    1
    12    22    23   am
    13    23    24    1
    14    23    25    2
    15     3     4   ar
    16     4     5   ar
    17     5     7    1
    18     7     8   ar
    19     8     9   ar
    20     9    10    1
    21     9    11   ar
    22    11    12   ar
    23    12    13    1
    24     5     6   ar
    25    18    14    1
    26     6     1   ar
    27    12     7   ar
    28    22    26    1
@<TRIPOS>MOLECULE
*****
 26 28 0 0 0
SMALL
GASTEIGER

@<TRIPOS>ATOM
      1 C          63.2077   86.3561   12.8557 C.ar    1  UNL1        0.1377
      2 C          62.5386   86.5861   11.5331 C.ar    1  UNL1        0.0689
      3 C          62.4544   87.9723   10.9663 C.ar    1  UNL1        0.1401
      4 N          63.0392   89.1285   11.7221 N.ar    1  UNL1       -0.1947
      5 C          63.7082   88.8984   13.0448 C.ar    1  UNL1        0.2550
      6 N          63.7925   87.5122   13.6116 N.ar    1  UNL1       -0.1949
      7 N          64.2930   90.0546   13.8006 N.ar    1  UNL1       -0.2008
      8 N          65.2236   91.0913   13.2446 N.ar    1  UNL1       -0.1673
      9 C          65.5556   92.0545   14.3456 C.ar    1  UNL1        0.0806
     10 C          66.4551   93.2493   14.2302 C.3     1  UNL1        0.0540
     11 C          64.8302   91.6130   15.5820 C.ar    1  UNL1        0.0313
     12 C          64.0499   90.3770   15.2453 C.ar    1  UNL1        0.0651
     13 C          63.1793   89.5999   16.1877 C.3     1  UNL1        0.0523
     14 C          63.5727   84.6179   14.8534 C.3     1  UNL1        0.1037
     15 C          63.5645   83.1227   14.9732 C.3     1  UNL1        0.0241
     16 C          63.2787   82.5505   13.6163 C.3     1  UNL1        0.0232
     17 C          63.1102   83.6921   12.6580 C.3     1  UNL1        0.0922
     18 N          63.2919   84.9698   13.4226 N.pl3   1  UNL1       -0.2922
     19 C          63.8185   85.5904   15.9687 C.3     1  UNL1        0.1619
     20 C          62.6492   86.4899   18.1072 C.3     1  UNL1        0.1742
     21 O          62.6639   86.2916   16.6205 O.3     1  UNL1       -0.3493
     22 N          61.7853   88.2024    9.6436 N.am    1  UNL1       -0.2692
     23 C          60.4490   88.8814    9.5871 C.2     1  UNL1        0.2277
     24 C          59.7800   89.1116    8.2645 C.3     1  UNL1        0.0950
     25 O          59.7818   89.3304   10.8534 O.2     1  UNL1       -0.2747
     26 H          62.2233   87.9078    8.8125 H       1  UNL1        0.1563
@<TRIPOS>BOND
     1    20    21    1
     2    21    19    1
     3    14    19    1
     4    14    15    1
     5    15    16    1
     6    16    17    1
     7    17    18    1
     8    18     1    1
     9     1     2   ar
    10     2     3   ar
    11     3    22    1
    12    22    23   am
    13    23    24    1
    14    23    25    2
    15     3     4   ar
    16     4     5   ar
    17     5     7    1
    18     7     8   ar
    19     8     9   ar
    20     9    10    1
    21     9    11   ar
    22    11    12   ar
    23    12    13    1
    24     5     6   ar
    25    18    14    1
    26     6     1   ar
    27    12     7   ar
    28    22    26    1
@<TRIPOS>MOLECULE
*****
 26 28 0 0 0
SMALL
GASTEIGER

@<TRIPOS>ATOM
      1 C          63.3651   85.8618   13.0821 C.ar    1  UNL1        0.1377
      2 C          64.0147   86.9806   13.8412 C.ar    1  UNL1        0.0689
      3 C          63.7860   88.4027   13.4228 C.ar    1  UNL1        0.1401
      4 N          62.9076   88.7061   12.2454 N.ar    1  UNL1       -0.1947
      5 C          62.2579   87.5874   11.4863 C.ar    1  UNL1        0.2550
      6 N          62.4867   86.1652   11.9047 N.ar    1  UNL1       -0.1949
      7 N          61.3795   87.8908   10.3089 N.ar    1  UNL1       -0.2008
      8 N          60.5266   86.9043    9.5677 N.ar    1  UNL1       -0.1673
      9 C          59.8198   87.6377    8.4666 C.ar    1  UNL1        0.0806
     10 C          58.8646   87.0368    7.4785 C.3     1  UNL1        0.0540
     11 C          60.2358   89.0776    8.5272 C.ar    1  UNL1        0.0313
     12 C          61.1998   89.2340    9.6658 C.ar    1  UNL1        0.0651
     13 C          61.8670   90.5096   10.0873 C.3     1  UNL1        0.0523
     14 C          63.1963   83.8318   14.8129 C.3     1  UNL1        0.1037
     15 C          63.6170   82.3920   14.8034 C.3     1  UNL1        0.0241
     16 C          64.2745   82.1100   13.4850 C.3     1  UNL1        0.0232
     17 C          64.2602   83.3754   12.6798 C.3     1  UNL1        0.0922
     18 N          63.5938   84.4396   13.5005 N.pl3   1  UNL1       -0.2922
     19 C          62.5002   84.5394   15.9375 C.3     1  UNL1        0.1619
     20 C          62.5233   86.5421   17.5925 C.3     1  UNL1        0.1742
     21 O          63.2596   85.5005   16.8032 O.3     1  UNL1       -0.3493
     22 N          64.4357   89.5216   14.1819 N.am    1  UNL1       -0.2692
     23 C          63.7048   90.1854   15.3111 C.2     1  UNL1        0.2277
     24 C          64.3544   91.3042   16.0702 C.3     1  UNL1        0.0950
     25 O          62.3242   89.7303   15.6813 O.2     1  UNL1       -0.2747
     26 H          65.3418   89.8203   13.9389 H       1  UNL1        0.1563
@<TRIPOS>BOND
     1    20    21    1
     2    21    19    1
     3    14    19    1
     4    14    15    1
     5    15    16    1
     6    16    17    1
     7    17    18    1
     8    18     1    1
     9     1     2   ar
    10     2     3   ar
    11     3    22    1
    12    22    23   am
    13    23    24    1
    14    23    25    2
    15     3     4   ar
    16     4     5   ar
    17     5     7    1
    18     7     8   ar
    19     8     9   ar
    20     9    10    1
    21     9    11   ar
    22    11    12   ar
    23    12    13    1
    24     5     6   ar
    25    18    14    1
    26     6     1   ar
    27    12     7   ar
    28    22    26    1
@<TRIPOS>MOLECULE
*****
 26 28 0 0 0
SMALL
GASTEIGER

@<TRIPOS>ATOM
      1 C          63.3489   85.7173   13.1225 C.ar    1  UNL1        0.1377
      2 C          64.0177   86.8228   13.8844 C.ar    1  UNL1        0.0689
      3 C          63.8145   88.2497   13.4689 C.ar    1  UNL1        0.1401
      4 N          62.9425   88.5710   12.2914 N.ar    1  UNL1       -0.1947
      5 C          62.2737   87.4655   11.5295 C.ar    1  UNL1        0.2550
      6 N          62.4769   86.0386   11.9450 N.ar    1  UNL1       -0.1949
      7 N          61.4017   87.7869   10.3521 N.ar    1  UNL1       -0.2008
      8 N          60.5533   86.8117    9.5910 N.ar    1  UNL1       -0.1673
      9 C          59.8523   87.5619    8.4975 C.ar    1  UNL1        0.0806
     10 C          58.9028   86.9761    7.4948 C.3     1  UNL1        0.0540
     11 C          60.2674   89.0008    8.5828 C.ar    1  UNL1        0.0313
     12 C          61.2250   89.1398    9.7290 C.ar    1  UNL1        0.0651
     13 C          61.8892   90.4090   10.1739 C.3     1  UNL1        0.0523
     14 C          64.1002   83.1909   12.6773 C.3     1  UNL1        0.1037
     15 C          64.1297   81.9334   13.4945 C.3     1  UNL1        0.0241
     16 C          63.6000   82.2557   14.8604 C.3     1  UNL1        0.0232
     17 C          63.2430   83.7124   14.8872 C.3     1  UNL1        0.0922
     18 N          63.5522   84.2903   13.5380 N.pl3   1  UNL1       -0.2922
     19 C          64.5412   83.3253   11.2499 C.3     1  UNL1        0.1619
     20 C          63.4662   84.3374    9.1121 C.3     1  UNL1        0.1742
     21 O          63.5321   83.2495   10.1427 O.3     1  UNL1       -0.3493
     22 N          64.4832   89.3553   14.2308 N.am    1  UNL1       -0.2692
     23 C          63.7234   90.1074   15.2829 C.2     1  UNL1        0.2277
     24 C          64.3921   91.2130   16.0448 C.3     1  UNL1        0.0950
     25 O          62.2947   89.7539   15.5731 O.2     1  UNL1       -0.2747
     26 H          65.4209   89.5873   14.0403 H       1  UNL1        0.1563
@<TRIPOS>BOND
     1    20    21    1
     2    21    19    1
     3    14    19    1
     4    14    15    1
     5    15    16    1
     6    16    17    1
     7    17    18    1
     8    18     1    1
     9     1     2   ar
    10     2     3   ar
    11     3    22    1
    12    22    23   am
    13    23    24    1
    14    23    25    2
    15     3     4   ar
    16     4     5   ar
    17     5     7    1
    18     7     8   ar
    19     8     9   ar
    20     9    10    1
    21     9    11   ar
    22    11    12   ar
    23    12    13    1
    24     5     6   ar
    25    18    14    1
    26     6     1   ar
    27    12     7   ar
    28    22    26    1
