@<TRIPOS>MOLECULE
*****
 35 39 0 0 0
SMALL
GASTEIGER

@<TRIPOS>ATOM
      1 C          62.7057   86.6439   11.7636 C.2     1  UNL1        0.2506
      2 O          63.3699   87.3924   12.8810 O.2     1  UNL1       -0.2699
      3 N          61.6621   87.3197   10.9244 N.am    1  UNL1       -0.2724
      4 C          60.9979   86.5712    9.8070 C.3     1  UNL1        0.1231
      5 C          59.9543   87.2470    8.9679 C.3     1  UNL1        0.1351
      6 C          59.2901   86.4985    7.8505 C.3     1  UNL1        0.0339
      7 O          59.5749   88.6713    9.2461 O.3     1  UNL1       -0.3527
      8 C          60.2392   89.4198   10.3635 C.3     1  UNL1        0.1621
      9 C          61.2827   88.7441   11.2026 C.3     1  UNL1        0.1097
     10 C          63.9392   81.8977   13.4818 C.3     1  UNL1        0.0327
     11 C          63.7018   82.8465   12.3445 C.ar    1  UNL1       -0.0023
     12 C          63.8439   82.3710   10.9289 C.ar    1  UNL1       -0.0027
     13 C          63.6065   83.3198    9.7916 C.ar    1  UNL1       -0.0001
     14 C          63.2272   84.7440   10.0699 C.ar    1  UNL1        0.0061
     15 C          63.0851   85.2196   11.4854 C.ar    1  UNL1        0.0726
     16 C          63.3224   84.2708   12.6227 C.ar    1  UNL1        0.1032
     17 N          63.1804   84.7463   14.0382 N.ar    1  UNL1       -0.1480
     18 N          61.9350   84.6756   14.8713 N.ar    1  UNL1       -0.1447
     19 C          62.2437   85.2616   16.2172 C.ar    1  UNL1        0.1446
     20 C          63.6799   85.6945   16.2159 C.ar    1  UNL1        0.1446
     21 N          64.2587   85.3760   14.8692 N.ar    1  UNL1       -0.1447
     22 C          61.9469   89.4926   12.3200 C.3     1  UNL1        0.0510
     23 C          63.0708   90.4407   12.0236 C.ar    1  UNL1        0.0071
     24 C          64.0514   90.8012   13.0999 C.ar    1  UNL1        0.0011
     25 C          65.1754   91.7494   12.8036 C.ar    1  UNL1        0.0356
     26 C          65.3187   92.3370   11.4309 C.ar    1  UNL1        0.0053
     27 C          64.3380   91.9764   10.3546 C.ar    1  UNL1        0.0294
     28 C          63.2141   91.0283   10.6510 C.ar    1  UNL1        0.1362
     29 F          62.2336   90.6677    9.5747 F       1  UNL1       -0.2045
     30 C          66.1560   92.1099   13.8799 C.ar    1  UNL1        0.1622
     31 N          65.6737   92.3777   15.2748 N.ar    1  UNL1       -0.2250
     32 C          66.6543   92.7382   16.3510 C.ar    1  UNL1        0.1022
     33 C          68.1172   92.8310   16.0324 C.ar    1  UNL1        0.0414
     34 C          68.5994   92.5632   14.6375 C.ar    1  UNL1        0.1022
     35 N          67.6188   92.2027   13.5612 N.ar    1  UNL1       -0.2250
@<TRIPOS>BOND
     1    10    11    1
     2    11    12   ar
     3    12    13   ar
     4    13    14   ar
     5    14    15   ar
     6    15     1    1
     7     1     2    2
     8     1     3   am
     9     3     4    1
    10     4     5    1
    11     5     6    1
    12     5     7    1
    13     7     8    1
    14     8     9    1
    15     9    22    1
    16    22    23    1
    17    23    24   ar
    18    24    25   ar
    19    25    30    1
    20    30    31   ar
    21    31    32   ar
    22    32    33   ar
    23    33    34   ar
    24    34    35   ar
    25    25    26   ar
    26    26    27   ar
    27    27    28   ar
    28    28    29    1
    29    15    16   ar
    30    16    17    1
    31    17    18   ar
    32    18    19   ar
    33    19    20   ar
    34    20    21   ar
    35    16    11   ar
    36    21    17   ar
    37     9     3    1
    38    28    23   ar
    39    35    30   ar
@<TRIPOS>MOLECULE
*****
 35 39 0 0 0
SMALL
GASTEIGER

@<TRIPOS>ATOM
      1 C          62.8412   87.2539   11.9616 C.2     1  UNL1        0.2506
      2 O          63.4778   87.5216   13.2932 O.2     1  UNL1       -0.2699
      3 N          62.0527   88.3309   11.2773 N.am    1  UNL1       -0.2724
      4 C          61.4161   88.0632    9.9457 C.3     1  UNL1        0.1231
      5 C          60.6276   89.1403    9.2613 C.3     1  UNL1        0.1351
      6 C          59.9910   88.8726    7.9297 C.3     1  UNL1        0.0339
      7 O          60.4757   90.4849    9.9085 O.3     1  UNL1       -0.3527
      8 C          61.1123   90.7525   11.2401 C.3     1  UNL1        0.1621
      9 C          61.9008   89.6756   11.9245 C.3     1  UNL1        0.1097
     10 C          63.4910   82.1142   12.3629 C.3     1  UNL1        0.0327
     11 C          63.3181   83.3395   11.5151 C.ar    1  UNL1       -0.0023
     12 C          63.2971   83.2201   10.0200 C.ar    1  UNL1       -0.0027
     13 C          63.1241   84.4453    9.1721 C.ar    1  UNL1       -0.0001
     14 C          62.9722   85.7899    9.8193 C.ar    1  UNL1        0.0061
     15 C          62.9932   85.9093   11.3144 C.ar    1  UNL1        0.0726
     16 C          63.1661   84.6841   12.1623 C.ar    1  UNL1        0.1032
     17 N          63.1871   84.8035   13.6574 N.ar    1  UNL1       -0.1480
     18 N          62.0021   84.6791   14.5685 N.ar    1  UNL1       -0.1447
     19 C          62.4794   84.8669   15.9781 C.ar    1  UNL1        0.1446
     20 C          63.9594   85.1074   15.9381 C.ar    1  UNL1        0.1446
     21 N          64.3968   85.0682   14.5038 N.ar    1  UNL1       -0.1447
     22 C          62.5374   89.9432   13.2561 C.3     1  UNL1        0.0510
     23 C          63.8743   90.6196   13.3258 C.ar    1  UNL1        0.0071
     24 C          64.3447   91.4708   12.1838 C.ar    1  UNL1        0.0011
     25 C          65.6817   92.1472   12.2535 C.ar    1  UNL1        0.0356
     26 C          66.5484   91.9724   13.4652 C.ar    1  UNL1        0.0053
     27 C          66.0780   91.1211   14.6073 C.ar    1  UNL1        0.0294
     28 C          64.7410   90.4448   14.5375 C.ar    1  UNL1        0.1362
     29 F          64.2707   89.5936   15.6795 F       1  UNL1       -0.2045
     30 C          66.1521   92.9984   11.1115 C.ar    1  UNL1        0.1622
     31 N          65.5289   94.3414   10.8707 N.ar    1  UNL1       -0.2250
     32 C          65.9992   95.1926    9.7287 C.ar    1  UNL1        0.1022
     33 C          67.0928   94.7008    8.8274 C.ar    1  UNL1        0.0414
     34 C          67.7159   93.3577    9.0681 C.ar    1  UNL1        0.1022
     35 N          67.2455   92.5065   10.2102 N.ar    1  UNL1       -0.2250
@<TRIPOS>BOND
     1    10    11    1
     2    11    12   ar
     3    12    13   ar
     4    13    14   ar
     5    14    15   ar
     6    15     1    1
     7     1     2    2
     8     1     3   am
     9     3     4    1
    10     4     5    1
    11     5     6    1
    12     5     7    1
    13     7     8    1
    14     8     9    1
    15     9    22    1
    16    22    23    1
    17    23    24   ar
    18    24    25   ar
    19    25    30    1
    20    30    31   ar
    21    31    32   ar
    22    32    33   ar
    23    33    34   ar
    24    34    35   ar
    25    25    26   ar
    26    26    27   ar
    27    27    28   ar
    28    28    29    1
    29    15    16   ar
    30    16    17    1
    31    17    18   ar
    32    18    19   ar
    33    19    20   ar
    34    20    21   ar
    35    16    11   ar
    36    21    17   ar
    37     9     3    1
    38    28    23   ar
    39    35    30   ar
