@<TRIPOS>MOLECULE
*****
 37 41 0 0 0
SMALL
GASTEIGER

@<TRIPOS>ATOM
      1 C          62.6561   83.8764   12.2360 C.3     1  UNL1        0.0414
      2 C          63.5347   83.5512   13.4075 C.3     1  UNL1        0.0741
      3 C          63.4568   83.6196   13.5254 C.3     1  UNL1        0.0904
      4 C          64.7499   84.2888   13.8863 C.3     1  UNL1        0.0386
      5 C          64.8100   85.2206   15.0602 C.3     1  UNL1        0.0594
      6 C          64.4166   86.0342   16.2574 C.3     1  UNL1        0.0174
      7 C          62.9583   85.7995   16.5184 C.3     1  UNL1        0.0174
      8 C          62.4504   84.8407   15.4826 C.3     1  UNL1        0.0594
      9 C          62.2239   83.8822   14.3385 C.3     1  UNL1        0.0386
     10 N          63.5948   84.4830   14.5814 N.3     1  UNL1       -0.2750
     11 C          64.9038   84.0780   10.6365 C.3     1  UNL1        0.0738
     12 C          64.0617   82.8985   11.0236 C.ar    1  UNL1        0.1433
     13 N          63.7369   81.7226   10.1507 N.ar    1  UNL1       -0.1337
     14 N          62.8711   80.7853   10.9392 N.ar    1  UNL1       -0.1337
     15 C          62.6608   81.3817   12.2992 C.ar    1  UNL1        0.1425
     16 N          63.3966   82.6878   12.3514 N.ar    1  UNL1       -0.3039
     17 C          61.8559   80.7781   13.4119 C.3     1  UNL1        0.0588
     18 C          62.4138   79.6345   14.2061 C.3     1  UNL1        0.0080
     19 C          60.4931   81.3182   13.7303 C.3     1  UNL1        0.0080
     20 C          62.5809   85.2839   11.7230 C.3     1  UNL1        0.0959
     21 C          61.9423   85.5651   10.3951 C.ar    1  UNL1        0.0025
     22 C          62.5552   85.3095    9.0501 C.ar    1  UNL1        0.0048
     23 C          61.5703   85.7377    8.0030 C.ar    1  UNL1        0.0352
     24 S          60.3486   86.2580    8.7008 S.2     1  UNL1       -0.0862
     25 C          60.5785   86.1513   10.1792 C.ar    1  UNL1        0.0328
     26 N          63.1442   86.4104   12.5378 N.am    1  UNL1       -0.3021
     27 C          63.0823   87.8161   12.0179 C.2     1  UNL1        0.2222
     28 O          62.4572   88.0953   10.6833 O.2     1  UNL1       -0.2751
     29 H          63.5545   86.2271   13.4137 H       1  UNL1        0.1497
     30 C          63.6456   88.9425   12.8327 C.3     1  UNL1        0.0769
     31 C          63.7714   90.3118   12.2334 C.3     1  UNL1        0.0147
     32 C          64.3347   91.4383   13.0482 C.3     1  UNL1        0.0671
     33 C          64.7723   91.1953   14.4622 C.3     1  UNL1        0.2640
     34 F          65.3195   91.4598   15.8336 F       1  UNL1       -0.2043
     35 F          65.0880   92.6565   14.3392 F       1  UNL1       -0.2043
     36 C          64.6465   89.8259   15.0615 C.3     1  UNL1        0.0671
     37 C          64.0832   88.6995   14.2467 C.3     1  UNL1        0.0147
@<TRIPOS>BOND
     1    11    12    1
     2    12    13   ar
     3    13    14   ar
     4    14    15   ar
     5    15    17    1
     6    17    18    1
     7    17    19    1
     8    15    16   ar
     9     3    16    1
    10     3     4    1
    11     5     4    1
    12     5     6    1
    13     6     7    1
    14     8     7    1
    15     8     9    1
    16     8    10    1
    17    10     2    1
    18     2     1    1
    19    20     1    1
    20    20    26    1
    21    26    27   am
    22    27    28    2
    23    27    30    1
    24    30    31    1
    25    31    32    1
    26    32    33    1
    27    33    34    1
    28    33    35    1
    29    33    36    1
    30    36    37    1
    31    20    21    1
    32    21    22   ar
    33    22    23   ar
    34    23    24   ar
    35    24    25   ar
    36    16    12   ar
    37     9     3    1
    38    37    30    1
    39    25    21   ar
    40    10     5    1
    41    26    29    1
@<TRIPOS>MOLECULE
*****
 37 41 0 0 0
SMALL
GASTEIGER

@<TRIPOS>ATOM
      1 C          59.1751   94.8738   -2.1243 C.3     1  UNL1        0.0414
      2 C          60.3384   95.3215   -2.9588 C.3     1  UNL1        0.0741
      3 C          60.4676   95.3363   -2.8707 C.3     1  UNL1        0.0904
      4 C          61.0358   94.1873   -3.6497 C.3     1  UNL1        0.0386
      5 C          62.4154   93.6837   -3.3447 C.3     1  UNL1        0.0594
      6 C          63.7709   93.5250   -2.7223 C.3     1  UNL1        0.0174
      7 C          63.9113   94.5611   -1.6468 C.3     1  UNL1        0.0174
      8 C          62.6426   95.3602   -1.6044 C.3     1  UNL1        0.0594
      9 C          61.2790   95.9819   -1.7868 C.3     1  UNL1        0.0386
     10 N          61.7180   94.8180   -2.6538 N.3     1  UNL1       -0.2750
     11 C          58.4613   96.8249   -0.7710 C.3     1  UNL1        0.0738
     12 C          58.1657   96.5241   -2.2106 C.ar    1  UNL1        0.1433
     13 N          56.8961   96.8548   -2.9377 N.ar    1  UNL1       -0.1337
     14 N          57.0336   96.3750   -4.3522 N.ar    1  UNL1       -0.1337
     15 C          58.3881   95.7477   -4.4993 C.ar    1  UNL1        0.1425
     16 N          59.0878   95.8399   -3.1757 N.ar    1  UNL1       -0.3039
     17 C          58.9452   95.1358   -5.7503 C.3     1  UNL1        0.0588
     18 C          59.9341   95.8977   -6.5819 C.3     1  UNL1        0.0080
     19 C          58.5135   93.7618   -6.1699 C.3     1  UNL1        0.0080
     20 C          59.0792   93.4457   -1.6760 C.3     1  UNL1        0.0959
     21 C          59.7448   93.0128   -0.4034 C.ar    1  UNL1        0.0025
     22 C          61.0086   92.2119   -0.2974 C.ar    1  UNL1        0.0048
     23 C          61.3081   92.0089    1.1582 C.ar    1  UNL1        0.0352
     24 S          60.2294   92.6844    1.9520 S.2     1  UNL1       -0.0862
     25 C          59.2632   93.3049    0.9869 C.ar    1  UNL1        0.0328
     26 N          58.3178   92.4502   -2.5004 N.am    1  UNL1       -0.3021
     27 C          56.8425   92.6220   -2.7100 C.2     1  UNL1        0.2222
     28 O          56.1286   93.7893   -2.0954 O.2     1  UNL1       -0.2751
     29 H          58.7864   91.6841   -2.9038 H       1  UNL1        0.1497
     30 C          56.0812   91.6266   -3.5343 C.3     1  UNL1        0.0769
     31 C          55.5189   90.3938   -2.8909 C.3     1  UNL1        0.0147
     32 C          54.7575   89.3983   -3.7152 C.3     1  UNL1        0.0671
     33 C          54.5586   89.6357   -5.1829 C.3     1  UNL1        0.2640
     34 F          54.1102   89.4187   -6.5978 F       1  UNL1       -0.2043
     35 F          53.8405   88.3275   -5.0309 F       1  UNL1       -0.2043
     36 C          55.1209   90.8685   -5.8263 C.3     1  UNL1        0.0671
     37 C          55.8823   91.8640   -5.0020 C.3     1  UNL1        0.0147
@<TRIPOS>BOND
     1    11    12    1
     2    12    13   ar
     3    13    14   ar
     4    14    15   ar
     5    15    17    1
     6    17    18    1
     7    17    19    1
     8    15    16   ar
     9     3    16    1
    10     3     4    1
    11     5     4    1
    12     5     6    1
    13     6     7    1
    14     8     7    1
    15     8     9    1
    16     8    10    1
    17    10     2    1
    18     2     1    1
    19    20     1    1
    20    20    26    1
    21    26    27   am
    22    27    28    2
    23    27    30    1
    24    30    31    1
    25    31    32    1
    26    32    33    1
    27    33    34    1
    28    33    35    1
    29    33    36    1
    30    36    37    1
    31    20    21    1
    32    21    22   ar
    33    22    23   ar
    34    23    24   ar
    35    24    25   ar
    36    16    12   ar
    37     9     3    1
    38    37    30    1
    39    25    21   ar
    40    10     5    1
    41    26    29    1
@<TRIPOS>MOLECULE
*****
 37 41 0 0 0
SMALL
GASTEIGER

@<TRIPOS>ATOM
      1 C          58.8410   95.0411   -3.2229 C.3     1  UNL1        0.0414
      2 C          60.1539   95.5368   -3.7525 C.3     1  UNL1        0.0741
      3 C          60.2562   95.5598   -3.6356 C.3     1  UNL1        0.0904
      4 C          61.0526   94.4284   -4.2149 C.3     1  UNL1        0.0386
      5 C          62.3339   94.0017   -3.5621 C.3     1  UNL1        0.0594
      6 C          63.4969   93.9235   -2.6181 C.3     1  UNL1        0.0174
      7 C          63.3171   94.9836   -1.5722 C.3     1  UNL1        0.0174
      8 C          62.0429   95.7170   -1.8699 C.3     1  UNL1        0.0594
      9 C          60.7411   96.2645   -2.4034 C.3     1  UNL1        0.0386
     10 N          61.4352   95.1102   -3.0997 N.3     1  UNL1       -0.2750
     11 C          57.6703   96.8529   -2.1221 C.3     1  UNL1        0.0738
     12 C          57.7862   96.5809   -3.5927 C.ar    1  UNL1        0.1433
     13 N          56.7339   96.8554   -4.6258 N.ar    1  UNL1       -0.1337
     14 N          57.2722   96.4308   -5.9599 N.ar    1  UNL1       -0.1337
     15 C          58.6571   95.8937   -5.7514 C.ar    1  UNL1        0.1425
     16 N          58.9748   95.9865   -4.2884 N.ar    1  UNL1       -0.3039
     17 C          59.5649   95.3580   -6.8185 C.3     1  UNL1        0.0588
     18 C          60.7406   96.1677   -7.2790 C.3     1  UNL1        0.0080
     19 C          59.2971   94.0124   -7.4252 C.3     1  UNL1        0.0080
     20 C          58.6921   93.6067   -2.8104 C.3     1  UNL1        0.0959
     21 C          57.7001   92.7245   -3.5087 C.ar    1  UNL1        0.0025
     22 C          57.4842   92.6412   -4.9908 C.ar    1  UNL1        0.0048
     23 C          56.4004   91.6359   -5.2455 C.ar    1  UNL1        0.0352
     24 S          55.9465   91.0980   -3.9209 S.2     1  UNL1       -0.0862
     25 C          56.7497   91.7708   -2.8475 C.ar    1  UNL1        0.0328
     26 N          59.5354   93.0543   -1.6996 N.am    1  UNL1       -0.3021
     27 C          59.4111   93.6147   -0.3137 C.2     1  UNL1        0.2222
     28 O          58.4437   94.7276   -0.0387 O.2     1  UNL1       -0.2751
     29 H          60.1703   92.3239   -1.8801 H       1  UNL1        0.1497
     30 C          60.2543   93.0622    0.7970 C.3     1  UNL1        0.0769
     31 C          59.6817   92.9262    2.1767 C.3     1  UNL1        0.0147
     32 C          60.5249   92.3737    3.2876 C.3     1  UNL1        0.0671
     33 C          61.9406   91.9574    3.0186 C.3     1  UNL1        0.2640
     34 F          63.3244   91.4301    3.2577 F       1  UNL1       -0.2043
     35 F          61.8486   91.6382    4.4813 F       1  UNL1       -0.2043
     36 C          62.5132   92.0934    1.6388 C.3     1  UNL1        0.0671
     37 C          61.6700   92.6459    0.5281 C.3     1  UNL1        0.0147
@<TRIPOS>BOND
     1    11    12    1
     2    12    13   ar
     3    13    14   ar
     4    14    15   ar
     5    15    17    1
     6    17    18    1
     7    17    19    1
     8    15    16   ar
     9     3    16    1
    10     3     4    1
    11     5     4    1
    12     5     6    1
    13     6     7    1
    14     8     7    1
    15     8     9    1
    16     8    10    1
    17    10     2    1
    18     2     1    1
    19    20     1    1
    20    20    26    1
    21    26    27   am
    22    27    28    2
    23    27    30    1
    24    30    31    1
    25    31    32    1
    26    32    33    1
    27    33    34    1
    28    33    35    1
    29    33    36    1
    30    36    37    1
    31    20    21    1
    32    21    22   ar
    33    22    23   ar
    34    23    24   ar
    35    24    25   ar
    36    16    12   ar
    37     9     3    1
    38    37    30    1
    39    25    21   ar
    40    10     5    1
    41    26    29    1
@<TRIPOS>MOLECULE
*****
 37 41 0 0 0
SMALL
GASTEIGER

@<TRIPOS>ATOM
      1 C          57.6724   95.1901   -2.9603 C.3     1  UNL1        0.0414
      2 C          58.2627   95.9862   -4.0863 C.3     1  UNL1        0.0741
      3 C          58.4086   96.0315   -4.0498 C.3     1  UNL1        0.0904
      4 C          58.8779   95.1476   -5.1672 C.3     1  UNL1        0.0386
      5 C          60.3422   95.0406   -5.4743 C.3     1  UNL1        0.0594
      6 C          61.8286   95.2352   -5.4226 C.3     1  UNL1        0.0174
      7 C          62.1321   96.1940   -4.3097 C.3     1  UNL1        0.0174
      8 C          60.8333   96.5921   -3.6737 C.3     1  UNL1        0.0594
      9 C          59.4036   96.8084   -3.2397 C.3     1  UNL1        0.0386
     10 N          59.7270   95.8793   -4.3934 N.3     1  UNL1       -0.2750
     11 C          57.1075   96.8560   -1.1728 C.3     1  UNL1        0.0738
     12 C          56.3462   96.5175   -2.4202 C.ar    1  UNL1        0.1433
     13 N          54.8532   96.4985   -2.5642 N.ar    1  UNL1       -0.1337
     14 N          54.5286   96.1079   -3.9755 N.ar    1  UNL1       -0.1337
     15 C          55.8208   95.8854   -4.7038 C.ar    1  UNL1        0.1425
     16 N          56.9442   96.1385   -3.7426 N.ar    1  UNL1       -0.3039
     17 C          55.9646   95.4807   -6.1411 C.3     1  UNL1        0.0588
     18 C          55.7383   94.0539   -6.5448 C.3     1  UNL1        0.0080
     19 C          56.3346   96.5029   -7.1747 C.3     1  UNL1        0.0080
     20 C          58.1482   93.7915   -2.7008 C.3     1  UNL1        0.0959
     21 C          57.2526   92.6265   -3.0019 C.ar    1  UNL1        0.0025
     22 C          57.1542   91.9059   -4.3137 C.ar    1  UNL1        0.0048
     23 C          56.1388   90.8117   -4.1665 C.ar    1  UNL1        0.0352
     24 S          55.6097   90.8560   -2.7636 S.2     1  UNL1       -0.0862
     25 C          56.2980   91.9776   -2.0438 C.ar    1  UNL1        0.0328
     26 N          59.5197   93.5577   -2.1400 N.am    1  UNL1       -0.3021
     27 C          59.7629   93.7044   -0.6671 C.2     1  UNL1        0.2222
     28 O          58.6345   94.0850    0.2450 O.2     1  UNL1       -0.2751
     29 H          60.2603   93.3080   -2.7387 H       1  UNL1        0.1497
     30 C          61.1343   93.4706   -0.1065 C.3     1  UNL1        0.0769
     31 C          61.3054   92.6578    1.1425 C.3     1  UNL1        0.0147
     32 C          62.6769   92.4240    1.7033 C.3     1  UNL1        0.0671
     33 C          63.8773   93.0031    1.0149 C.3     1  UNL1        0.2640
     34 F          65.3099   93.3405    0.7255 F       1  UNL1       -0.2043
     35 F          64.5459   92.3074    2.1634 F       1  UNL1       -0.2043
     36 C          63.7062   93.8159   -0.2341 C.3     1  UNL1        0.0671
     37 C          62.3347   94.0497   -0.7948 C.3     1  UNL1        0.0147
@<TRIPOS>BOND
     1    11    12    1
     2    12    13   ar
     3    13    14   ar
     4    14    15   ar
     5    15    17    1
     6    17    18    1
     7    17    19    1
     8    15    16   ar
     9     3    16    1
    10     3     4    1
    11     5     4    1
    12     5     6    1
    13     6     7    1
    14     8     7    1
    15     8     9    1
    16     8    10    1
    17    10     2    1
    18     2     1    1
    19    20     1    1
    20    20    26    1
    21    26    27   am
    22    27    28    2
    23    27    30    1
    24    30    31    1
    25    31    32    1
    26    32    33    1
    27    33    34    1
    28    33    35    1
    29    33    36    1
    30    36    37    1
    31    20    21    1
    32    21    22   ar
    33    22    23   ar
    34    23    24   ar
    35    24    25   ar
    36    16    12   ar
    37     9     3    1
    38    37    30    1
    39    25    21   ar
    40    10     5    1
    41    26    29    1
@<TRIPOS>MOLECULE
*****
 37 41 0 0 0
SMALL
GASTEIGER

@<TRIPOS>ATOM
      1 C          63.8819   89.4664   13.3034 C.3     1  UNL1        0.0414
      2 C          62.8879   90.4590   12.7774 C.3     1  UNL1        0.0741
      3 C          62.8721   90.4419   12.6221 C.3     1  UNL1        0.0904
      4 C          61.4588   90.0179   12.8921 C.3     1  UNL1        0.0386
      5 C          60.5572   89.6447   11.7529 C.3     1  UNL1        0.0594
      6 C          60.0430   89.3745   10.3699 C.3     1  UNL1        0.0174
      7 C          61.1544   89.6487    9.4005 C.3     1  UNL1        0.0174
      8 C          62.3553   90.0883   10.1843 C.3     1  UNL1        0.0594
      9 C          63.3837   90.4927   11.2130 C.3     1  UNL1        0.0386
     10 N          61.9862   90.0859   11.6382 N.3     1  UNL1       -0.2750
     11 C          62.3493   89.7870   15.7761 C.3     1  UNL1        0.0738
     12 C          63.5335   90.5141   15.2111 C.ar    1  UNL1        0.1433
     13 N          64.6853   91.0678   15.9965 N.ar    1  UNL1       -0.1337
     14 N          65.6373   91.7109   15.0322 N.ar    1  UNL1       -0.1337
     15 C          65.0740   91.5548   13.6508 C.ar    1  UNL1        0.1425
     16 N          63.7738   90.8151   13.7613 N.ar    1  UNL1       -0.3039
     17 C          65.7009   92.0512   12.3817 C.3     1  UNL1        0.0588
     18 C          67.1284   91.7135   12.0683 C.3     1  UNL1        0.0080
     19 C          64.9003   92.8852   11.4259 C.3     1  UNL1        0.0080
     20 C          63.7203   88.0076   12.9945 C.3     1  UNL1        0.0959
     21 C          63.8686   86.9890   14.0855 C.ar    1  UNL1        0.0025
     22 C          63.6467   87.2267   15.5499 C.ar    1  UNL1        0.0048
     23 C          63.9058   85.9383   16.2731 C.ar    1  UNL1        0.0352
     24 S          64.2877   84.9044   15.2557 S.2     1  UNL1       -0.0862
     25 C          64.2648   85.5536   13.9037 C.ar    1  UNL1        0.0328
     26 N          63.4104   87.5672   11.5944 N.am    1  UNL1       -0.3021
     27 C          62.3964   86.4881   11.3547 C.2     1  UNL1        0.2222
     28 O          61.6923   85.8494   12.5151 O.2     1  UNL1       -0.2751
     29 H          63.8725   87.9863   10.8328 H       1  UNL1        0.1497
     30 C          62.0865   86.0477    9.9547 C.3     1  UNL1        0.0769
     31 C          63.1454   85.3832    9.1259 C.3     1  UNL1        0.0147
     32 C          62.8355   84.9428    7.7258 C.3     1  UNL1        0.0671
     33 C          61.4667   85.1670    7.1547 C.3     1  UNL1        0.2640
     34 F          60.3284   85.1595    6.1779 F       1  UNL1       -0.2043
     35 F          62.1303   84.4998    5.9866 F       1  UNL1       -0.2043
     36 C          60.4078   85.8316    7.9836 C.3     1  UNL1        0.0671
     37 C          60.7177   86.2719    9.3836 C.3     1  UNL1        0.0147
@<TRIPOS>BOND
     1    11    12    1
     2    12    13   ar
     3    13    14   ar
     4    14    15   ar
     5    15    17    1
     6    17    18    1
     7    17    19    1
     8    15    16   ar
     9     3    16    1
    10     3     4    1
    11     5     4    1
    12     5     6    1
    13     6     7    1
    14     8     7    1
    15     8     9    1
    16     8    10    1
    17    10     2    1
    18     2     1    1
    19    20     1    1
    20    20    26    1
    21    26    27   am
    22    27    28    2
    23    27    30    1
    24    30    31    1
    25    31    32    1
    26    32    33    1
    27    33    34    1
    28    33    35    1
    29    33    36    1
    30    36    37    1
    31    20    21    1
    32    21    22   ar
    33    22    23   ar
    34    23    24   ar
    35    24    25   ar
    36    16    12   ar
    37     9     3    1
    38    37    30    1
    39    25    21   ar
    40    10     5    1
    41    26    29    1
@<TRIPOS>MOLECULE
*****
 37 41 0 0 0
SMALL
GASTEIGER

@<TRIPOS>ATOM
      1 C          55.8735   95.1162   -2.5142 C.3     1  UNL1        0.0414
      2 C          56.7209   96.2353   -3.0433 C.3     1  UNL1        0.0741
      3 C          56.8633   96.1930   -3.0941 C.3     1  UNL1        0.0904
      4 C          57.4106   96.8446   -1.8588 C.3     1  UNL1        0.0386
      5 C          58.8891   96.8499   -1.6061 C.3     1  UNL1        0.0594
      6 C          60.3638   96.6235   -1.7613 C.3     1  UNL1        0.0174
      7 C          60.5854   95.8743   -3.0417 C.3     1  UNL1        0.0174
      8 C          59.2478   95.6376   -3.6778 C.3     1  UNL1        0.0594
      9 C          57.7946   95.5468   -4.0766 C.3     1  UNL1        0.0386
     10 N          58.1994   96.2406   -2.7905 N.3     1  UNL1       -0.2750
     11 C          54.5317   96.5999   -0.8474 C.3     1  UNL1        0.0738
     12 C          54.3130   96.3747   -2.3143 C.ar    1  UNL1        0.1433
     13 N          52.9842   96.2969   -3.0059 N.ar    1  UNL1       -0.1337
     14 N          53.2348   96.0618   -4.4660 N.ar    1  UNL1       -0.1337
     15 C          54.7183   95.9943   -4.6768 C.ar    1  UNL1        0.1425
     16 N          55.3847   96.1876   -3.3470 N.ar    1  UNL1       -0.3039
     17 C          55.4135   95.7723   -5.9873 C.3     1  UNL1        0.0588
     18 C          55.2453   94.4713   -6.7146 C.3     1  UNL1        0.0080
     19 C          56.2768   96.8515   -6.5707 C.3     1  UNL1        0.0080
     20 C          56.4981   93.7919   -2.1890 C.3     1  UNL1        0.0959
     21 C          56.1161   92.5702   -2.9711 C.ar    1  UNL1        0.0025
     22 C          56.0188   92.4743   -4.4649 C.ar    1  UNL1        0.0048
     23 C          55.6069   91.0747   -4.8136 C.ar    1  UNL1        0.0352
     24 S          55.4496   90.3057   -3.5354 S.2     1  UNL1       -0.0862
     25 C          55.7643   91.2299   -2.3966 C.ar    1  UNL1        0.0328
     26 N          57.5047   93.6889   -1.0816 N.am    1  UNL1       -0.3021
     27 C          58.8371   93.0487   -1.3363 C.2     1  UNL1        0.2222
     28 O          59.1629   92.5114   -2.6984 O.2     1  UNL1       -0.2751
     29 H          57.2909   94.0416   -0.1877 H       1  UNL1        0.1497
     30 C          59.8436   92.9458   -0.2290 C.3     1  UNL1        0.0769
     31 C          59.3838   92.7977    1.1911 C.3     1  UNL1        0.0147
     32 C          60.3904   92.6948    2.2985 C.3     1  UNL1        0.0671
     33 C          61.8567   92.7401    1.9857 C.3     1  UNL1        0.2640
     34 F          63.3426   92.7330    2.1909 F       1  UNL1       -0.2043
     35 F          61.9129   92.5895    3.4771 F       1  UNL1       -0.2043
     36 C          62.3165   92.8882    0.5656 C.3     1  UNL1        0.0671
     37 C          61.3100   92.9911   -0.5417 C.3     1  UNL1        0.0147
@<TRIPOS>BOND
     1    11    12    1
     2    12    13   ar
     3    13    14   ar
     4    14    15   ar
     5    15    17    1
     6    17    18    1
     7    17    19    1
     8    15    16   ar
     9     3    16    1
    10     3     4    1
    11     5     4    1
    12     5     6    1
    13     6     7    1
    14     8     7    1
    15     8     9    1
    16     8    10    1
    17    10     2    1
    18     2     1    1
    19    20     1    1
    20    20    26    1
    21    26    27   am
    22    27    28    2
    23    27    30    1
    24    30    31    1
    25    31    32    1
    26    32    33    1
    27    33    34    1
    28    33    35    1
    29    33    36    1
    30    36    37    1
    31    20    21    1
    32    21    22   ar
    33    22    23   ar
    34    23    24   ar
    35    24    25   ar
    36    16    12   ar
    37     9     3    1
    38    37    30    1
    39    25    21   ar
    40    10     5    1
    41    26    29    1
@<TRIPOS>MOLECULE
*****
 37 41 0 0 0
SMALL
GASTEIGER

@<TRIPOS>ATOM
      1 C          59.8649   95.2003   -3.2967 C.3     1  UNL1        0.0414
      2 C          61.3054   95.5542   -3.5202 C.3     1  UNL1        0.0741
      3 C          61.4088   95.4424   -3.4819 C.3     1  UNL1        0.0904
      4 C          61.7560   96.2827   -2.2889 C.3     1  UNL1        0.0386
      5 C          62.8022   95.8150   -1.3210 C.3     1  UNL1        0.0594
      6 C          63.8598   94.9870   -0.6534 C.3     1  UNL1        0.0174
      7 C          64.0628   93.7467   -1.4722 C.3     1  UNL1        0.0174
      8 C          63.1306   93.8081   -2.6457 C.3     1  UNL1        0.0594
      9 C          62.1077   94.1344   -3.7070 C.3     1  UNL1        0.0386
     10 N          62.3515   95.0865   -2.5523 N.3     1  UNL1       -0.2750
     11 C          58.5596   96.8306   -2.7043 C.3     1  UNL1        0.0738
     12 C          59.0530   96.5482   -4.0925 C.ar    1  UNL1        0.1433
     13 N          58.3235   96.8542   -5.3669 N.ar    1  UNL1       -0.1337
     14 N          59.1822   96.4053   -6.5118 N.ar    1  UNL1       -0.1337
     15 C          60.4424   95.8219   -5.9452 C.ar    1  UNL1        0.1425
     16 N          60.3626   95.9101   -4.4499 N.ar    1  UNL1       -0.3039
     17 C          61.5825   95.2504   -6.7350 C.3     1  UNL1        0.0588
     18 C          61.4200   93.9393   -7.4453 C.3     1  UNL1        0.0080
     19 C          62.8850   95.9901   -6.8146 C.3     1  UNL1        0.0080
     20 C          59.4941   93.8215   -2.8372 C.3     1  UNL1        0.0959
     21 C          58.4434   93.0432   -3.5723 C.ar    1  UNL1        0.0025
     22 C          58.1933   93.0779   -5.0509 C.ar    1  UNL1        0.0048
     23 C          57.0537   92.1496   -5.3502 C.ar    1  UNL1        0.0352
     24 S          56.5995   91.5412   -4.0566 S.2     1  UNL1       -0.0862
     25 C          57.4583   92.0934   -2.9578 C.ar    1  UNL1        0.0328
     26 N          60.1738   93.2208   -1.6425 N.am    1  UNL1       -0.3021
     27 C          59.7432   93.6111   -0.2596 C.2     1  UNL1        0.2222
     28 O          58.6329   94.6020   -0.0714 O.2     1  UNL1       -0.2751
     29 H          60.9025   92.5705   -1.7660 H       1  UNL1        0.1497
     30 C          60.4229   93.0104    0.9350 C.3     1  UNL1        0.0769
     31 C          61.7982   92.4268    0.8007 C.3     1  UNL1        0.0147
     32 C          62.4779   91.8261    1.9954 C.3     1  UNL1        0.0671
     33 C          61.7823   91.8091    3.3243 C.3     1  UNL1        0.2640
     34 F          61.5346   91.5592    4.7824 F       1  UNL1       -0.2043
     35 F          63.0715   91.1387    3.6964 F       1  UNL1       -0.2043
     36 C          60.4071   92.3928    3.4585 C.3     1  UNL1        0.0671
     37 C          59.7274   92.9934    2.2639 C.3     1  UNL1        0.0147
@<TRIPOS>BOND
     1    11    12    1
     2    12    13   ar
     3    13    14   ar
     4    14    15   ar
     5    15    17    1
     6    17    18    1
     7    17    19    1
     8    15    16   ar
     9     3    16    1
    10     3     4    1
    11     5     4    1
    12     5     6    1
    13     6     7    1
    14     8     7    1
    15     8     9    1
    16     8    10    1
    17    10     2    1
    18     2     1    1
    19    20     1    1
    20    20    26    1
    21    26    27   am
    22    27    28    2
    23    27    30    1
    24    30    31    1
    25    31    32    1
    26    32    33    1
    27    33    34    1
    28    33    35    1
    29    33    36    1
    30    36    37    1
    31    20    21    1
    32    21    22   ar
    33    22    23   ar
    34    23    24   ar
    35    24    25   ar
    36    16    12   ar
    37     9     3    1
    38    37    30    1
    39    25    21   ar
    40    10     5    1
    41    26    29    1
@<TRIPOS>MOLECULE
*****
 37 41 0 0 0
SMALL
GASTEIGER

@<TRIPOS>ATOM
      1 C          61.0309   95.1636   -0.9718 C.3     1  UNL1        0.0414
      2 C          62.4846   95.4434   -1.2133 C.3     1  UNL1        0.0741
      3 C          62.5958   95.3368   -1.1825 C.3     1  UNL1        0.0904
      4 C          62.7981   96.0414    0.1261 C.3     1  UNL1        0.0386
      5 C          63.8289   95.5427    1.0949 C.3     1  UNL1        0.0594
      6 C          64.9210   94.7279    1.7223 C.3     1  UNL1        0.0174
      7 C          65.2825   93.6263    0.7705 C.3     1  UNL1        0.0174
      8 C          64.4138   93.7602   -0.4450 C.3     1  UNL1        0.0594
      9 C          63.4242   94.1334   -1.5223 C.3     1  UNL1        0.0386
     10 N          63.5155   94.9446   -0.2445 N.3     1  UNL1       -0.2750
     11 C          59.8101   96.8506   -0.4091 C.3     1  UNL1        0.0738
     12 C          60.2845   96.5314   -1.7959 C.ar    1  UNL1        0.1433
     13 N          59.5618   96.8519   -3.0707 N.ar    1  UNL1       -0.1337
     14 N          60.3955   96.3542   -4.2139 N.ar    1  UNL1       -0.1337
     15 C          61.6335   95.7260   -3.6459 C.ar    1  UNL1        0.1425
     16 N          61.5649   95.8355   -2.1514 N.ar    1  UNL1       -0.3039
     17 C          62.7450   95.0986   -4.4338 C.3     1  UNL1        0.0588
     18 C          62.4825   93.8702   -5.2537 C.3     1  UNL1        0.0080
     19 C          64.1191   95.6994   -4.4019 C.3     1  UNL1        0.0080
     20 C          60.5823   93.7757   -0.6221 C.3     1  UNL1        0.0959
     21 C          60.9797   93.1673    0.6902 C.ar    1  UNL1        0.0025
     22 C          61.9579   92.0465    0.8824 C.ar    1  UNL1        0.0048
     23 C          62.0512   91.7596    2.3517 C.ar    1  UNL1        0.0352
     24 S          61.1308   92.7031    3.0676 S.2     1  UNL1       -0.0862
     25 C          60.4685   93.5732    2.0408 C.ar    1  UNL1        0.0328
     26 N          59.7364   92.9958   -1.5846 N.am    1  UNL1       -0.3021
     27 C          58.2715   93.2940   -1.7075 C.2     1  UNL1        0.2222
     28 O          57.6524   94.3719   -0.8679 O.2     1  UNL1       -0.2751
     29 H          60.1426   92.2884   -2.1357 H       1  UNL1        0.1497
     30 C          57.4256   92.5142   -2.6700 C.3     1  UNL1        0.0769
     31 C          56.5107   91.4388   -2.1635 C.3     1  UNL1        0.0147
     32 C          55.6648   90.6590   -3.1260 C.3     1  UNL1        0.0671
     33 C          55.7338   90.9547   -4.5950 C.3     1  UNL1        0.2640
     34 F          55.4509   90.8661   -6.0654 F       1  UNL1       -0.2043
     35 F          54.7207   89.8485   -4.5991 F       1  UNL1       -0.2043
     36 C          56.6487   92.0300   -5.1015 C.3     1  UNL1        0.0671
     37 C          57.4946   92.8098   -4.1390 C.3     1  UNL1        0.0147
@<TRIPOS>BOND
     1    11    12    1
     2    12    13   ar
     3    13    14   ar
     4    14    15   ar
     5    15    17    1
     6    17    18    1
     7    17    19    1
     8    15    16   ar
     9     3    16    1
    10     3     4    1
    11     5     4    1
    12     5     6    1
    13     6     7    1
    14     8     7    1
    15     8     9    1
    16     8    10    1
    17    10     2    1
    18     2     1    1
    19    20     1    1
    20    20    26    1
    21    26    27   am
    22    27    28    2
    23    27    30    1
    24    30    31    1
    25    31    32    1
    26    32    33    1
    27    33    34    1
    28    33    35    1
    29    33    36    1
    30    36    37    1
    31    20    21    1
    32    21    22   ar
    33    22    23   ar
    34    23    24   ar
    35    24    25   ar
    36    16    12   ar
    37     9     3    1
    38    37    30    1
    39    25    21   ar
    40    10     5    1
    41    26    29    1
@<TRIPOS>MOLECULE
*****
 37 41 0 0 0
SMALL
GASTEIGER

@<TRIPOS>ATOM
      1 C          62.0795   88.6038   11.7356 C.3     1  UNL1        0.0414
      2 C          62.2692   89.6872   10.7157 C.3     1  UNL1        0.0741
      3 C          62.3166   89.7987   10.8156 C.3     1  UNL1        0.0904
      4 C          63.3479   90.1684    9.7911 C.3     1  UNL1        0.0386
      5 C          64.3030   91.2932   10.0604 C.3     1  UNL1        0.0594
      6 C          65.0138   92.4317   10.7302 C.3     1  UNL1        0.0174
      7 C          64.3744   92.6541   12.0687 C.3     1  UNL1        0.0174
      8 C          63.2684   91.6531   12.2262 C.3     1  UNL1        0.0594
      9 C          62.2404   90.5537   12.1095 C.3     1  UNL1        0.0386
     10 N          63.2243   90.8120   10.9850 N.3     1  UNL1       -0.2750
     11 C          62.9361   87.1443    9.0211 C.3     1  UNL1        0.0738
     12 C          61.6462   87.4537    9.7215 C.ar    1  UNL1        0.1433
     13 N          60.4146   86.5975    9.7199 N.ar    1  UNL1       -0.1337
     14 N          59.3688   87.2883   10.5438 N.ar    1  UNL1       -0.1337
     15 C          59.9539   88.5715   11.0545 C.ar    1  UNL1        0.1425
     16 N          61.3614   88.6738   10.5463 N.ar    1  UNL1       -0.3039
     17 C          59.2543   89.5762   11.9213 C.3     1  UNL1        0.0588
     18 C          59.0535   90.9794   11.4308 C.3     1  UNL1        0.0080
     19 C          58.7555   89.1777   13.2787 C.3     1  UNL1        0.0080
     20 C          63.2420   88.1404   12.5624 C.3     1  UNL1        0.0959
     21 C          63.3528   86.6980   12.9589 C.ar    1  UNL1        0.0025
     22 C          62.7012   85.5398   12.2633 C.ar    1  UNL1        0.0048
     23 C          63.0803   84.2865   12.9952 C.ar    1  UNL1        0.0352
     24 S          63.9662   84.6702   14.1432 S.2     1  UNL1       -0.0862
     25 C          64.1346   86.1606   14.1208 C.ar    1  UNL1        0.0328
     26 N          64.2940   89.1193   12.9929 N.am    1  UNL1       -0.3021
     27 C          64.2488   89.7115   14.3703 C.2     1  UNL1        0.2222
     28 O          63.1517   89.3248   15.3173 O.2     1  UNL1       -0.2751
     29 H          65.0140   89.3732   12.3713 H       1  UNL1        0.1497
     30 C          65.3007   90.6904   14.8007 C.3     1  UNL1        0.0769
     31 C          66.6551   90.6673   14.1566 C.3     1  UNL1        0.0147
     32 C          67.7071   91.6462   14.5870 C.3     1  UNL1        0.0671
     33 C          67.4045   92.6481   15.6615 C.3     1  UNL1        0.2640
     34 F          67.5954   93.7785   16.6289 F       1  UNL1       -0.2043
     35 F          68.8253   93.0176   15.3534 F       1  UNL1       -0.2043
     36 C          66.0500   92.6713   16.3056 C.3     1  UNL1        0.0671
     37 C          64.9981   91.6924   15.8752 C.3     1  UNL1        0.0147
@<TRIPOS>BOND
     1    11    12    1
     2    12    13   ar
     3    13    14   ar
     4    14    15   ar
     5    15    17    1
     6    17    18    1
     7    17    19    1
     8    15    16   ar
     9     3    16    1
    10     3     4    1
    11     5     4    1
    12     5     6    1
    13     6     7    1
    14     8     7    1
    15     8     9    1
    16     8    10    1
    17    10     2    1
    18     2     1    1
    19    20     1    1
    20    20    26    1
    21    26    27   am
    22    27    28    2
    23    27    30    1
    24    30    31    1
    25    31    32    1
    26    32    33    1
    27    33    34    1
    28    33    35    1
    29    33    36    1
    30    36    37    1
    31    20    21    1
    32    21    22   ar
    33    22    23   ar
    34    23    24   ar
    35    24    25   ar
    36    16    12   ar
    37     9     3    1
    38    37    30    1
    39    25    21   ar
    40    10     5    1
    41    26    29    1
