@<TRIPOS>MOLECULE
*****
 34 38 0 0 0
SMALL
GASTEIGER

@<TRIPOS>ATOM
      1 C          61.3067   88.3774   11.0389 C.3     1  UNL1        0.1096
      2 C          60.3088   88.9798   10.0948 C.3     1  UNL1        0.1622
      3 O          59.7607   88.1638    8.9618 O.3     1  UNL1       -0.3502
      4 C          60.2105   86.7454    8.7729 C.3     1  UNL1        0.1637
      5 C          61.2084   86.1429    9.7169 C.3     1  UNL1        0.1257
      6 N          61.7565   86.9589   10.8500 N.am    1  UNL1       -0.2723
      7 C          62.7544   86.3565   11.7940 C.2     1  UNL1        0.2506
      8 O          63.3025   87.1725   12.9270 O.2     1  UNL1       -0.2699
      9 C          63.2042   84.9380   11.6051 C.ar    1  UNL1        0.0729
     10 C          63.3967   84.3902   10.2221 C.ar    1  UNL1        0.0061
     11 C          63.8465   82.9717   10.0331 C.ar    1  UNL1        0.0002
     12 C          64.1038   82.1012   11.2272 C.ar    1  UNL1        0.0016
     13 C          63.9113   82.6490   12.6102 C.ar    1  UNL1        0.0211
     14 C          63.4615   84.0675   12.7992 C.ar    1  UNL1        0.1072
     15 N          63.2690   84.6153   14.1823 N.ar    1  UNL1       -0.1477
     16 N          64.3275   85.2512   15.0339 N.ar    1  UNL1       -0.1447
     17 C          63.6970   85.6523   16.3345 C.ar    1  UNL1        0.1446
     18 C          62.2488   85.2644   16.2866 C.ar    1  UNL1        0.1446
     19 N          61.9843   84.6235   14.9565 N.ar    1  UNL1       -0.1447
     20 C          61.8548   89.1934   12.1719 C.3     1  UNL1        0.0487
     21 C          65.0400   92.2747   11.3908 C.ar    1  UNL1        0.1401
     22 C          64.0622   91.9165   10.3112 C.ar    1  UNL1        0.0366
     23 C          63.0004   90.8894   10.5716 C.ar    1  UNL1       -0.0011
     24 C          62.9165   90.2205   11.9116 C.ar    1  UNL1       -0.0202
     25 C          63.8944   90.5787   12.9911 C.ar    1  UNL1        0.0003
     26 C          64.9561   91.6058   12.7307 C.ar    1  UNL1        0.0513
     27 C          65.9340   91.9639   13.8104 C.ar    1  UNL1        0.0842
     28 C          67.4080   91.8788   13.5456 C.ar    1  UNL1        0.0192
     29 C          68.3858   92.2369   14.6252 C.ar    1  UNL1        0.0031
     30 C          67.8897   92.6803   15.9696 C.ar    1  UNL1        0.0207
     31 C          66.4157   92.7654   16.2344 C.ar    1  UNL1        0.0988
     32 N          65.4378   92.4072   15.1547 N.ar    1  UNL1       -0.2437
     33 C          67.0605   93.1173    9.9917 C.3     1  UNL1        0.2525
     34 O          66.1017   93.3018   11.1304 O.3     1  UNL1       -0.4714
@<TRIPOS>BOND
     1    33    34    1
     2    34    21    1
     3    21    22   ar
     4    22    23   ar
     5    23    24   ar
     6    24    20    1
     7     1    20    1
     8     1     2    1
     9     2     3    1
    10     3     4    1
    11     4     5    1
    12     5     6    1
    13     6     7   am
    14     7     8    2
    15     7     9    1
    16     9    10   ar
    17    10    11   ar
    18    11    12   ar
    19    12    13   ar
    20    13    14   ar
    21    14    15    1
    22    15    16   ar
    23    16    17   ar
    24    17    18   ar
    25    18    19   ar
    26    24    25   ar
    27    25    26   ar
    28    26    27    1
    29    27    28   ar
    30    28    29   ar
    31    29    30   ar
    32    30    31   ar
    33    31    32   ar
    34    26    21   ar
    35    32    27   ar
    36     6     1    1
    37    14     9   ar
    38    19    15   ar
@<TRIPOS>MOLECULE
*****
 34 38 0 0 0
SMALL
GASTEIGER

@<TRIPOS>ATOM
      1 C          62.1560   89.5538   11.8836 C.3     1  UNL1        0.1096
      2 C          61.4661   90.5996   11.0588 C.3     1  UNL1        0.1622
      3 O          60.9075   90.2451    9.7126 O.3     1  UNL1       -0.3502
      4 C          61.0388   88.8448    9.1912 C.3     1  UNL1        0.1637
      5 C          61.7286   87.7990   10.0160 C.3     1  UNL1        0.1257
      6 N          62.2873   88.1534   11.3622 N.am    1  UNL1       -0.2723
      7 C          62.9771   87.1076   12.1870 C.2     1  UNL1        0.2506
      8 O          63.5357   87.4621   13.5332 O.2     1  UNL1       -0.2699
      9 C          63.1084   85.7073   11.6656 C.ar    1  UNL1        0.0729
     10 C          63.1361   85.4571   10.1869 C.ar    1  UNL1        0.0061
     11 C          63.2673   84.0568    9.6655 C.ar    1  UNL1        0.0002
     12 C          63.3709   82.9066   10.6228 C.ar    1  UNL1        0.0016
     13 C          63.3432   83.1569   12.1015 C.ar    1  UNL1        0.0211
     14 C          63.2120   84.5572   12.6229 C.ar    1  UNL1        0.1072
     15 N          63.1843   84.8073   14.1016 N.ar    1  UNL1       -0.1477
     16 N          64.3700   85.1214   14.9651 N.ar    1  UNL1       -0.1447
     17 C          63.8847   85.2955   16.3736 C.ar    1  UNL1        0.1446
     18 C          62.3989   85.0891   16.3807 C.ar    1  UNL1        0.1446
     19 N          61.9661   84.7874   14.9766 N.ar    1  UNL1       -0.1447
     20 C          62.7146   89.9083   13.2298 C.3     1  UNL1        0.0487
     21 C          66.6639   92.0436   13.5358 C.ar    1  UNL1        0.1401
     22 C          66.1737   91.2057   14.6793 C.ar    1  UNL1        0.0366
     23 C          64.8573   90.4940   14.5773 C.ar    1  UNL1       -0.0011
     24 C          64.0310   90.6200   13.3318 C.ar    1  UNL1       -0.0202
     25 C          64.5212   91.4579   12.1883 C.ar    1  UNL1        0.0003
     26 C          65.8377   92.1696   12.2903 C.ar    1  UNL1        0.0513
     27 C          66.3278   93.0075   11.1467 C.ar    1  UNL1        0.0842
     28 C          67.3887   92.4765   10.2286 C.ar    1  UNL1        0.0192
     29 C          67.8789   93.3143    9.0851 C.ar    1  UNL1        0.0031
     30 C          67.3082   94.6831    8.8595 C.ar    1  UNL1        0.0207
     31 C          66.2474   95.2141    9.7775 C.ar    1  UNL1        0.0988
     32 N          65.7572   94.3762   10.9211 N.ar    1  UNL1       -0.2437
     33 C          68.7465   92.7341   14.9272 C.3     1  UNL1        0.2525
     34 O          67.9803   92.7553   13.6378 O.3     1  UNL1       -0.4714
@<TRIPOS>BOND
     1    33    34    1
     2    34    21    1
     3    21    22   ar
     4    22    23   ar
     5    23    24   ar
     6    24    20    1
     7     1    20    1
     8     1     2    1
     9     2     3    1
    10     3     4    1
    11     4     5    1
    12     5     6    1
    13     6     7   am
    14     7     8    2
    15     7     9    1
    16     9    10   ar
    17    10    11   ar
    18    11    12   ar
    19    12    13   ar
    20    13    14   ar
    21    14    15    1
    22    15    16   ar
    23    16    17   ar
    24    17    18   ar
    25    18    19   ar
    26    24    25   ar
    27    25    26   ar
    28    26    27    1
    29    27    28   ar
    30    28    29   ar
    31    29    30   ar
    32    30    31   ar
    33    31    32   ar
    34    26    21   ar
    35    32    27   ar
    36     6     1    1
    37    14     9   ar
    38    19    15   ar
@<TRIPOS>MOLECULE
*****
 34 38 0 0 0
SMALL
GASTEIGER

@<TRIPOS>ATOM
      1 C          63.3044   88.7674   15.3789 C.3     1  UNL1        0.1096
      2 C          63.1617   89.1137   16.8314 C.3     1  UNL1        0.1622
      3 O          63.0979   88.0235   17.8596 O.3     1  UNL1       -0.3502
      4 C          63.1769   86.5869   17.4354 C.3     1  UNL1        0.1637
      5 C          63.3196   86.2405   15.9830 C.3     1  UNL1        0.1257
      6 N          63.3834   87.3308   14.9547 N.am    1  UNL1       -0.2723
      7 C          63.5261   86.9844   13.5023 C.2     1  UNL1        0.2506
      8 O          63.5899   88.0746   12.4740 O.2     1  UNL1       -0.2699
      9 C          63.6051   85.5478   13.0781 C.ar    1  UNL1        0.0729
     10 C          64.4346   84.5777   13.8659 C.ar    1  UNL1        0.0061
     11 C          64.5136   83.1411   13.4417 C.ar    1  UNL1        0.0002
     12 C          63.7630   82.6746   12.2297 C.ar    1  UNL1        0.0016
     13 C          62.9335   83.6447   11.4419 C.ar    1  UNL1        0.0211
     14 C          62.8545   85.0813   11.8661 C.ar    1  UNL1        0.1072
     15 N          62.0249   86.0514   11.0782 N.ar    1  UNL1       -0.1477
     16 N          62.2325   86.4243    9.6401 N.ar    1  UNL1       -0.1447
     17 C          61.1781   87.4223    9.2632 C.ar    1  UNL1        0.1446
     18 C          60.3188   87.6663   10.4683 C.ar    1  UNL1        0.1446
     19 N          60.8422   86.8190   11.5900 N.ar    1  UNL1       -0.1447
     20 C          63.3682   89.8576   14.3506 C.3     1  UNL1        0.0487
     21 C          66.7157   92.8629   14.4624 C.ar    1  UNL1        0.1401
     22 C          66.1193   92.3566   15.7422 C.ar    1  UNL1        0.0366
     23 C          65.0035   91.3548   15.7049 C.ar    1  UNL1       -0.0011
     24 C          64.4840   90.8594   14.3879 C.ar    1  UNL1       -0.0202
     25 C          65.0804   91.3657   13.1081 C.ar    1  UNL1        0.0003
     26 C          66.1963   92.3675   13.1454 C.ar    1  UNL1        0.0513
     27 C          66.7926   92.8738   11.8655 C.ar    1  UNL1        0.0842
     28 C          67.6643   91.9766   11.0377 C.ar    1  UNL1        0.0192
     29 C          68.2606   92.4828    9.7579 C.ar    1  UNL1        0.0031
     30 C          67.9854   93.8864    9.3058 C.ar    1  UNL1        0.0207
     31 C          67.1138   94.7836   10.1336 C.ar    1  UNL1        0.0988
     32 N          66.5174   94.2773   11.4134 N.ar    1  UNL1       -0.2437
     33 C          68.7551   93.9150   15.6805 C.3     1  UNL1        0.2525
     34 O          67.8315   93.8647   14.4997 O.3     1  UNL1       -0.4714
@<TRIPOS>BOND
     1    33    34    1
     2    34    21    1
     3    21    22   ar
     4    22    23   ar
     5    23    24   ar
     6    24    20    1
     7     1    20    1
     8     1     2    1
     9     2     3    1
    10     3     4    1
    11     4     5    1
    12     5     6    1
    13     6     7   am
    14     7     8    2
    15     7     9    1
    16     9    10   ar
    17    10    11   ar
    18    11    12   ar
    19    12    13   ar
    20    13    14   ar
    21    14    15    1
    22    15    16   ar
    23    16    17   ar
    24    17    18   ar
    25    18    19   ar
    26    24    25   ar
    27    25    26   ar
    28    26    27    1
    29    27    28   ar
    30    28    29   ar
    31    29    30   ar
    32    30    31   ar
    33    31    32   ar
    34    26    21   ar
    35    32    27   ar
    36     6     1    1
    37    14     9   ar
    38    19    15   ar
