@<TRIPOS>MOLECULE
*****
 47 51 0 0 0
SMALL
GASTEIGER

@<TRIPOS>ATOM
      1 C          63.9688   85.8897   16.4094 C.3     1  UNL1        0.2054
      2 O          64.5127   86.1123   15.0294 O.3     1  UNL1       -0.4755
      3 C          63.7730   85.5818   13.8371 C.ar    1  UNL1        0.1386
      4 C          63.6662   84.1017   13.6183 C.ar    1  UNL1        0.0369
      5 C          62.9265   83.5712   12.4261 C.ar    1  UNL1        0.0031
      6 C          62.2937   84.5209   11.4526 C.ar    1  UNL1        0.0002
      7 C          62.4005   86.0010   11.6714 C.ar    1  UNL1        0.0031
      8 C          63.1402   86.5314   12.8636 C.ar    1  UNL1        0.0369
      9 C          61.7676   86.9507   10.6978 C.ar    1  UNL1        0.0033
     10 C          62.0589   88.4194   10.7856 C.ar    1  UNL1        0.0033
     11 C          61.4261   89.3690    9.8121 C.ar    1  UNL1        0.0402
     12 C          60.5019   88.8499    8.7509 C.ar    1  UNL1        0.1764
     13 C          60.2105   87.3811    8.6631 C.ar    1  UNL1        0.1764
     14 C          60.8433   86.4314    9.6366 C.ar    1  UNL1        0.0402
     15 O          59.2655   87.1635    7.5187 O.3     1  UNL1       -0.4346
     16 C          58.9728   88.4979    6.8993 C.3     1  UNL1        0.4294
     17 O          59.7369   89.5401    7.6607 O.3     1  UNL1       -0.4346
     18 C          62.8197   82.0911   12.2072 C.ar    1  UNL1        0.0023
     19 C          62.4536   81.1888   13.3482 C.ar    1  UNL1        0.0001
     20 C          62.3467   79.7087   13.1294 C.ar    1  UNL1        0.0023
     21 C          62.6059   79.1309   11.7697 C.ar    1  UNL1        0.0296
     22 C          62.9720   80.0332   10.6286 C.ar    1  UNL1        0.1401
     23 F          63.2312   79.4554    9.2690 F       1  UNL1       -0.2042
     24 C          63.0789   81.5133   10.8476 C.ar    1  UNL1        0.0296
     25 C          62.8751   86.7712   16.9357 C.3     1  UNL1        0.0473
     26 C          63.1768   88.1868   17.3293 C.3     1  UNL1        0.0038
     27 C          62.8460   89.3120   16.3941 C.3     1  UNL1        0.0005
     28 C          63.5573   89.4277   15.0786 C.3     1  UNL1        0.0047
     29 C          64.6310   90.4590   14.8947 C.3     1  UNL1        0.0261
     30 C          65.7446   93.1503   12.1991 C.ar    1  UNL1        0.1342
     31 C          64.9576   92.6978   11.0049 C.ar    1  UNL1        0.0365
     32 C          64.0619   91.4991   11.1073 C.ar    1  UNL1        0.0028
     33 C          63.9530   90.7528   12.4039 C.ar    1  UNL1       -0.0044
     34 C          64.7399   91.2053   13.5981 C.ar    1  UNL1       -0.0232
     35 C          65.6357   92.4041   13.4957 C.ar    1  UNL1        0.0082
     36 C          66.4226   92.8565   14.6899 C.3     1  UNL1        0.0350
     37 C          67.6900   92.1475   15.0653 C.3     1  UNL1        0.0465
     38 C          68.9954   92.8863   15.0499 C.2     1  UNL1        0.0507
     39 O          70.0753   92.4811   14.0909 O.co2   1  UNL1       -0.5492
     40 O          69.2209   94.0303   15.9935 O.co2   1  UNL1       -0.5492
     41 O          66.6404   94.3491   12.0967 O.3     1  UNL1       -0.4758
     42 C          66.5323   95.2674   10.9156 C.3     1  UNL1        0.2058
     43 C          66.7774   94.7420    9.5321 C.3     1  UNL1        0.0532
     44 C          68.1532   94.2995    9.1307 C.3     1  UNL1        0.0455
     45 O          68.8195   92.0315    8.0525 O.co2   1  UNL1       -0.5492
     46 C          68.5495   92.8599    9.2737 C.2     1  UNL1        0.0505
     47 O          68.6759   92.2486   10.6376 O.co2   1  UNL1       -0.5492
@<TRIPOS>UNITY_ATOM_ATTR
39 1
charge -1
45 1
charge -1
@<TRIPOS>BOND
     1    45    46   ar
     2    46    47   ar
     3    46    44    1
     4    44    43    1
     5    43    42    1
     6    42    41    1
     7    41    30    1
     8    30    31   ar
     9    31    32   ar
    10    32    33   ar
    11    33    34   ar
    12    34    29    1
    13    29    28    1
    14    28    27    1
    15    27    26    1
    16    26    25    1
    17    25     1    1
    18     1     2    1
    19     2     3    1
    20     3     4   ar
    21     4     5   ar
    22     5    18    1
    23    18    19   ar
    24    19    20   ar
    25    20    21   ar
    26    21    22   ar
    27    22    23    1
    28    22    24   ar
    29     5     6   ar
    30     6     7   ar
    31     7     9    1
    32     9    10   ar
    33    10    11   ar
    34    11    12   ar
    35    12    13   ar
    36    13    14   ar
    37    13    15    1
    38    15    16    1
    39    16    17    1
    40     7     8   ar
    41    34    35   ar
    42    35    36    1
    43    36    37    1
    44    37    38    1
    45    38    39   ar
    46    38    40   ar
    47    35    30   ar
    48     8     3   ar
    49    24    18   ar
    50    14     9   ar
    51    17    12    1
@<TRIPOS>MOLECULE
*****
 47 51 0 0 0
SMALL
GASTEIGER

@<TRIPOS>ATOM
      1 C          64.2806   85.9485   16.0864 C.3     1  UNL1        0.2054
      2 O          64.5015   86.4425   14.6875 O.3     1  UNL1       -0.4755
      3 C          63.7147   85.8573   13.5524 C.ar    1  UNL1        0.1386
      4 C          63.0019   86.7602   12.5898 C.ar    1  UNL1        0.0369
      5 C          62.2151   86.1750   11.4547 C.ar    1  UNL1        0.0031
      6 C          62.1410   84.6868   11.2822 C.ar    1  UNL1        0.0002
      7 C          62.8538   83.7838   12.2448 C.ar    1  UNL1        0.0031
      8 C          63.6406   84.3691   13.3799 C.ar    1  UNL1        0.0369
      9 C          62.7798   82.2955   12.0723 C.ar    1  UNL1        0.0033
     10 C          62.4356   81.4212   13.2414 C.ar    1  UNL1        0.0033
     11 C          62.3616   79.9330   13.0690 C.ar    1  UNL1        0.0402
     12 C          62.6318   79.3192   11.7273 C.ar    1  UNL1        0.1764
     13 C          62.9759   80.1935   10.5580 C.ar    1  UNL1        0.1764
     14 C          63.0500   81.6817   10.7305 C.ar    1  UNL1        0.0402
     15 O          63.1900   79.3095    9.3653 O.3     1  UNL1       -0.4346
     16 C          62.9781   77.8888    9.7974 C.3     1  UNL1        0.4294
     17 O          62.6331   77.8948   11.2571 O.3     1  UNL1       -0.4346
     18 C          61.5022   87.0779   10.4921 C.ar    1  UNL1        0.0023
     19 C          60.9175   86.5166    9.2299 C.ar    1  UNL1        0.0001
     20 C          60.2047   87.4194    8.2673 C.ar    1  UNL1        0.0023
     21 C          60.0766   88.8836    8.5667 C.ar    1  UNL1        0.0296
     22 C          60.6613   89.4450    9.8290 C.ar    1  UNL1        0.1401
     23 F          60.5331   90.9091   10.1285 F       1  UNL1       -0.2042
     24 C          61.3741   88.5420   10.7915 C.ar    1  UNL1        0.0296
     25 C          62.9058   85.9828   16.6855 C.3     1  UNL1        0.0473
     26 C          62.4098   87.2308   17.3537 C.3     1  UNL1        0.0038
     27 C          63.1729   88.5139   17.2072 C.3     1  UNL1        0.0005
     28 C          63.1913   89.2292   15.8888 C.3     1  UNL1        0.0047
     29 C          64.2293   90.2778   15.6189 C.3     1  UNL1        0.0261
     30 C          65.9247   91.9502   12.4442 C.ar    1  UNL1        0.1342
     31 C          64.8161   91.8398   11.4397 C.ar    1  UNL1        0.0365
     32 C          63.5119   91.2088   11.8284 C.ar    1  UNL1        0.0028
     33 C          63.3164   90.6881   13.2214 C.ar    1  UNL1       -0.0044
     34 C          64.4249   90.7985   14.2258 C.ar    1  UNL1       -0.0232
     35 C          65.7291   91.4295   13.8373 C.ar    1  UNL1        0.0082
     36 C          66.8376   91.5398   14.8418 C.3     1  UNL1        0.0350
     37 C          67.1235   92.8562   15.5016 C.3     1  UNL1        0.0465
     38 C          68.5109   93.4255   15.4697 C.2     1  UNL1        0.0507
     39 O          69.5485   92.8225   14.5699 O.co2   1  UNL1       -0.5492
     40 O          68.8606   94.5979   16.3376 O.co2   1  UNL1       -0.5492
     41 O          67.2289   92.5812   12.0556 O.3     1  UNL1       -0.4758
     42 C          68.1170   91.9095   11.0506 C.3     1  UNL1        0.2058
     43 C          68.4880   92.6212    9.7834 C.3     1  UNL1        0.0532
     44 C          67.4762   93.4760    9.0795 C.3     1  UNL1        0.0455
     45 O          67.1076   95.4475   10.7309 O.co2   1  UNL1       -0.5492
     46 C          67.4211   94.9503    9.3508 C.2     1  UNL1        0.0505
     47 O          67.6793   95.9271    8.2422 O.co2   1  UNL1       -0.5492
@<TRIPOS>UNITY_ATOM_ATTR
39 1
charge -1
45 1
charge -1
@<TRIPOS>BOND
     1    45    46   ar
     2    46    47   ar
     3    46    44    1
     4    44    43    1
     5    43    42    1
     6    42    41    1
     7    41    30    1
     8    30    31   ar
     9    31    32   ar
    10    32    33   ar
    11    33    34   ar
    12    34    29    1
    13    29    28    1
    14    28    27    1
    15    27    26    1
    16    26    25    1
    17    25     1    1
    18     1     2    1
    19     2     3    1
    20     3     4   ar
    21     4     5   ar
    22     5    18    1
    23    18    19   ar
    24    19    20   ar
    25    20    21   ar
    26    21    22   ar
    27    22    23    1
    28    22    24   ar
    29     5     6   ar
    30     6     7   ar
    31     7     9    1
    32     9    10   ar
    33    10    11   ar
    34    11    12   ar
    35    12    13   ar
    36    13    14   ar
    37    13    15    1
    38    15    16    1
    39    16    17    1
    40     7     8   ar
    41    34    35   ar
    42    35    36    1
    43    36    37    1
    44    37    38    1
    45    38    39   ar
    46    38    40   ar
    47    35    30   ar
    48     8     3   ar
    49    24    18   ar
    50    14     9   ar
    51    17    12    1
@<TRIPOS>MOLECULE
*****
 47 51 0 0 0
SMALL
GASTEIGER

@<TRIPOS>ATOM
      1 C          64.5350   86.8675   15.5708 C.3     1  UNL1        0.2054
      2 O          64.9131   85.6238   14.8223 O.3     1  UNL1       -0.4755
      3 C          64.0698   85.1538   13.6743 C.ar    1  UNL1        0.1386
      4 C          63.9120   83.6855   13.4114 C.ar    1  UNL1        0.0369
      5 C          63.0687   83.2155   12.2634 C.ar    1  UNL1        0.0031
      6 C          62.3833   84.2138   11.3782 C.ar    1  UNL1        0.0002
      7 C          62.5411   85.6821   11.6411 C.ar    1  UNL1        0.0031
      8 C          63.3844   86.1521   12.7891 C.ar    1  UNL1        0.0369
      9 C          61.8556   86.6805   10.7558 C.ar    1  UNL1        0.0033
     10 C          62.0812   88.1484   10.9658 C.ar    1  UNL1        0.0033
     11 C          61.3958   89.1467   10.0806 C.ar    1  UNL1        0.0402
     12 C          60.4847   88.6770    8.9855 C.ar    1  UNL1        0.1764
     13 C          60.2590   87.2090    8.7756 C.ar    1  UNL1        0.1764
     14 C          60.9445   86.2107    9.6607 C.ar    1  UNL1        0.0402
     15 O          59.3126   87.0456    7.6233 O.3     1  UNL1       -0.4346
     16 C          58.9534   88.4126    7.1212 C.3     1  UNL1        0.4294
     17 O          59.6778   89.4209    7.9630 O.3     1  UNL1       -0.4346
     18 C          62.9109   81.7471   12.0004 C.ar    1  UNL1        0.0023
     19 C          62.5387   80.8206   13.1198 C.ar    1  UNL1        0.0001
     20 C          62.3808   79.3522   12.8570 C.ar    1  UNL1        0.0023
     21 C          62.5951   78.8105   11.4747 C.ar    1  UNL1        0.0296
     22 C          62.9673   79.7371   10.3553 C.ar    1  UNL1        0.1401
     23 F          63.1816   79.1953    8.9731 F       1  UNL1       -0.2042
     24 C          63.1251   81.2054   10.6183 C.ar    1  UNL1        0.0296
     25 C          63.3666   86.8508   16.5114 C.3     1  UNL1        0.0473
     26 C          62.8541   88.1346   17.0937 C.3     1  UNL1        0.0038
     27 C          62.9210   89.4010   16.2925 C.3     1  UNL1        0.0005
     28 C          63.7941   90.5320   16.7489 C.3     1  UNL1        0.0047
     29 C          64.1081   91.6618   15.8135 C.3     1  UNL1        0.0261
     30 C          67.4851   91.7872   13.7326 C.ar    1  UNL1        0.1342
     31 C          68.3772   92.5278   14.6844 C.ar    1  UNL1        0.0365
     32 C          67.8462   92.9797   16.0125 C.ar    1  UNL1        0.0028
     33 C          66.4232   92.6910   16.3889 C.ar    1  UNL1       -0.0044
     34 C          65.5312   91.9504   15.4371 C.ar    1  UNL1       -0.0232
     35 C          66.0621   91.4985   14.1090 C.ar    1  UNL1        0.0082
     36 C          65.1700   90.7580   13.1573 C.3     1  UNL1        0.0350
     37 C          64.0223   91.4659   12.5003 C.3     1  UNL1        0.0465
     38 C          64.2069   92.1084   11.1576 C.2     1  UNL1        0.0507
     39 O          63.4496   91.5938    9.9694 O.co2   1  UNL1       -0.5492
     40 O          65.1490   93.2654   11.0029 O.co2   1  UNL1       -0.5492
     41 O          68.0161   91.3353   12.4045 O.3     1  UNL1       -0.4758
     42 C          68.3424   92.3450   11.3443 C.3     1  UNL1        0.2058
     43 C          68.0809   92.0288    9.9015 C.3     1  UNL1        0.0532
     44 C          68.3523   93.0599    8.8466 C.3     1  UNL1        0.0455
     45 O          67.0068   94.9501    7.6774 O.co2   1  UNL1       -0.5492
     46 C          67.6642   94.3915    8.9046 C.2     1  UNL1        0.0505
     47 O          67.6335   95.1645   10.1898 O.co2   1  UNL1       -0.5492
@<TRIPOS>UNITY_ATOM_ATTR
39 1
charge -1
45 1
charge -1
@<TRIPOS>BOND
     1    45    46   ar
     2    46    47   ar
     3    46    44    1
     4    44    43    1
     5    43    42    1
     6    42    41    1
     7    41    30    1
     8    30    31   ar
     9    31    32   ar
    10    32    33   ar
    11    33    34   ar
    12    34    29    1
    13    29    28    1
    14    28    27    1
    15    27    26    1
    16    26    25    1
    17    25     1    1
    18     1     2    1
    19     2     3    1
    20     3     4   ar
    21     4     5   ar
    22     5    18    1
    23    18    19   ar
    24    19    20   ar
    25    20    21   ar
    26    21    22   ar
    27    22    23    1
    28    22    24   ar
    29     5     6   ar
    30     6     7   ar
    31     7     9    1
    32     9    10   ar
    33    10    11   ar
    34    11    12   ar
    35    12    13   ar
    36    13    14   ar
    37    13    15    1
    38    15    16    1
    39    16    17    1
    40     7     8   ar
    41    34    35   ar
    42    35    36    1
    43    36    37    1
    44    37    38    1
    45    38    39   ar
    46    38    40   ar
    47    35    30   ar
    48     8     3   ar
    49    24    18   ar
    50    14     9   ar
    51    17    12    1
@<TRIPOS>MOLECULE
*****
 47 51 0 0 0
SMALL
GASTEIGER

@<TRIPOS>ATOM
      1 C          64.1025   86.7401   15.7883 C.3     1  UNL1        0.2054
      2 O          64.7020   85.7333   14.8518 O.3     1  UNL1       -0.4755
      3 C          63.9342   85.2812   13.6451 C.ar    1  UNL1        0.1386
      4 C          63.8236   83.8186   13.3312 C.ar    1  UNL1        0.0369
      5 C          63.0559   83.3664   12.1245 C.ar    1  UNL1        0.0031
      6 C          62.3987   84.3769   11.2317 C.ar    1  UNL1        0.0002
      7 C          62.5092   85.8395   11.5457 C.ar    1  UNL1        0.0031
      8 C          63.2770   86.2916   12.7524 C.ar    1  UNL1        0.0369
      9 C          61.8520   86.8500   10.6529 C.ar    1  UNL1        0.0033
     10 C          62.1364   88.3112   10.8372 C.ar    1  UNL1        0.0033
     11 C          61.4793   89.3217    9.9445 C.ar    1  UNL1        0.0402
     12 C          60.5376   88.8710    8.8674 C.ar    1  UNL1        0.1764
     13 C          60.2532   87.4098    8.6830 C.ar    1  UNL1        0.1764
     14 C          60.9103   86.3993    9.5757 C.ar    1  UNL1        0.0402
     15 O          59.2874   87.2656    7.5444 O.3     1  UNL1       -0.4346
     16 C          58.9749   88.6377    7.0251 C.3     1  UNL1        0.4294
     17 O          59.7476   89.6299    7.8427 O.3     1  UNL1       -0.4346
     18 C          62.9452   81.9038   11.8104 C.ar    1  UNL1        0.0023
     19 C          63.1584   81.4199   10.4067 C.ar    1  UNL1        0.0001
     20 C          63.0478   79.9574   10.0927 C.ar    1  UNL1        0.0023
     21 C          62.7240   78.9787   11.1823 C.ar    1  UNL1        0.0296
     22 C          62.5109   79.4626   12.5861 C.ar    1  UNL1        0.1401
     23 F          62.1871   78.4839   13.6757 F       1  UNL1       -0.2042
     24 C          62.6215   80.9252   12.9000 C.ar    1  UNL1        0.0296
     25 C          63.8856   88.1526   15.3320 C.3     1  UNL1        0.0473
     26 C          62.9488   89.0488   16.0864 C.3     1  UNL1        0.0038
     27 C          63.4721   90.2801   16.7648 C.3     1  UNL1        0.0005
     28 C          64.0346   91.4050   15.9474 C.3     1  UNL1        0.0047
     29 C          65.2123   91.1642   15.0502 C.3     1  UNL1        0.0261
     30 C          66.2119   92.5830   11.4812 C.ar    1  UNL1        0.1342
     31 C          64.9799   92.2552   10.6907 C.ar    1  UNL1        0.0365
     32 C          63.8254   91.5638   11.3534 C.ar    1  UNL1        0.0028
     33 C          63.9029   91.2001   12.8065 C.ar    1  UNL1       -0.0044
     34 C          65.1349   91.5279   13.5970 C.ar    1  UNL1       -0.0232
     35 C          66.2894   92.2194   12.9344 C.ar    1  UNL1        0.0082
     36 C          67.5212   92.5471   13.7249 C.3     1  UNL1        0.0350
     37 C          67.4135   92.8507   15.1899 C.3     1  UNL1        0.0465
     38 C          68.6027   93.3792   15.9358 C.2     1  UNL1        0.0507
     39 O          68.7692   94.8570   16.1313 O.co2   1  UNL1       -0.5492
     40 O          69.6254   92.4299   16.4862 O.co2   1  UNL1       -0.5492
     41 O          67.3663   93.2745   10.8185 O.3     1  UNL1       -0.4758
     42 C          67.1891   93.9032    9.4682 C.3     1  UNL1        0.2058
     43 C          67.7306   95.2769    9.2037 C.3     1  UNL1        0.0532
     44 C          66.8403   96.4751    9.3507 C.3     1  UNL1        0.0455
     45 O          66.0603   96.1568   11.8084 O.co2   1  UNL1       -0.5492
     46 C          65.7460   96.4751   10.3766 C.2     1  UNL1        0.0505
     47 O          64.3374   96.7932    9.9707 O.co2   1  UNL1       -0.5492
@<TRIPOS>UNITY_ATOM_ATTR
39 1
charge -1
45 1
charge -1
@<TRIPOS>BOND
     1    45    46   ar
     2    46    47   ar
     3    46    44    1
     4    44    43    1
     5    43    42    1
     6    42    41    1
     7    41    30    1
     8    30    31   ar
     9    31    32   ar
    10    32    33   ar
    11    33    34   ar
    12    34    29    1
    13    29    28    1
    14    28    27    1
    15    27    26    1
    16    26    25    1
    17    25     1    1
    18     1     2    1
    19     2     3    1
    20     3     4   ar
    21     4     5   ar
    22     5    18    1
    23    18    19   ar
    24    19    20   ar
    25    20    21   ar
    26    21    22   ar
    27    22    23    1
    28    22    24   ar
    29     5     6   ar
    30     6     7   ar
    31     7     9    1
    32     9    10   ar
    33    10    11   ar
    34    11    12   ar
    35    12    13   ar
    36    13    14   ar
    37    13    15    1
    38    15    16    1
    39    16    17    1
    40     7     8   ar
    41    34    35   ar
    42    35    36    1
    43    36    37    1
    44    37    38    1
    45    38    39   ar
    46    38    40   ar
    47    35    30   ar
    48     8     3   ar
    49    24    18   ar
    50    14     9   ar
    51    17    12    1
@<TRIPOS>MOLECULE
*****
 47 51 0 0 0
SMALL
GASTEIGER

@<TRIPOS>ATOM
      1 C          61.2720   84.8303    7.0830 C.3     1  UNL1        0.2054
      2 O          60.3243   85.5304    8.0112 O.3     1  UNL1       -0.4755
      3 C          60.3525   87.0259    8.1242 C.ar    1  UNL1        0.1386
      4 C          59.6094   87.8674    7.1294 C.ar    1  UNL1        0.0369
      5 C          59.6377   89.3629    7.2424 C.ar    1  UNL1        0.0031
      6 C          60.4091   90.0169    8.3502 C.ar    1  UNL1        0.0002
      7 C          61.1523   89.1754    9.3449 C.ar    1  UNL1        0.0031
      8 C          61.1240   87.6799    9.2320 C.ar    1  UNL1        0.0369
      9 C          61.9238   89.8294   10.4528 C.ar    1  UNL1        0.0033
     10 C          61.5167   89.6122   11.8800 C.ar    1  UNL1        0.0033
     11 C          62.2882   90.2662   12.9878 C.ar    1  UNL1        0.0402
     12 C          63.4667   91.1374   12.6683 C.ar    1  UNL1        0.1764
     13 C          63.8738   91.3546   11.2410 C.ar    1  UNL1        0.1764
     14 C          63.1024   90.7006   10.1332 C.ar    1  UNL1        0.0402
     15 O          65.0703   92.2591   11.2327 O.3     1  UNL1       -0.4346
     16 C          65.4027   92.6010   12.6549 C.3     1  UNL1        0.4294
     17 O          64.4116   91.9077   13.5421 O.3     1  UNL1       -0.4346
     18 C          58.8945   90.2044    6.2476 C.ar    1  UNL1        0.0023
     19 C          57.4022   90.0973    6.1410 C.ar    1  UNL1        0.0001
     20 C          56.6590   90.9388    5.1462 C.ar    1  UNL1        0.0023
     21 C          57.4081   91.8875    4.2581 C.ar    1  UNL1        0.0296
     22 C          58.9006   91.9946    4.3648 C.ar    1  UNL1        0.1401
     23 F          59.6497   92.9433    3.4767 F       1  UNL1       -0.2042
     24 C          59.6437   91.1531    5.3596 C.ar    1  UNL1        0.0296
     25 C          62.7374   84.7865    7.4004 C.3     1  UNL1        0.0473
     26 C          63.2002   84.8962    8.8229 C.3     1  UNL1        0.0038
     27 C          63.9780   83.7758    9.4472 C.3     1  UNL1        0.0005
     28 C          63.3757   82.9758   10.5640 C.3     1  UNL1        0.0047
     29 C          62.4639   83.6381   11.5540 C.3     1  UNL1        0.0261
     30 C          63.9555   85.5409   14.7010 C.ar    1  UNL1        0.1342
     31 C          64.0162   86.9463   14.1799 C.ar    1  UNL1        0.0365
     32 C          63.5594   87.2488   12.7835 C.ar    1  UNL1        0.0028
     33 C          63.0419   86.1461   11.9082 C.ar    1  UNL1       -0.0044
     34 C          62.9813   84.7408   12.4293 C.ar    1  UNL1       -0.0232
     35 C          63.4381   84.4382   13.8257 C.ar    1  UNL1        0.0082
     36 C          63.3774   83.0329   14.3466 C.3     1  UNL1        0.0350
     37 C          62.0577   82.4315   14.7297 C.3     1  UNL1        0.0465
     38 C          61.5863   81.1721   14.0651 C.2     1  UNL1        0.0507
     39 O          62.5020   80.4223   13.1436 O.co2   1  UNL1       -0.5492
     40 O          60.1990   80.6626   14.3219 O.co2   1  UNL1       -0.5492
     41 O          64.4123   85.2384   16.0973 O.3     1  UNL1       -0.4758
     42 C          63.5298   85.5710   17.2638 C.3     1  UNL1        0.2058
     43 C          62.5716   86.7217   17.1752 C.3     1  UNL1        0.0532
     44 C          63.0375   88.1118   17.4925 C.3     1  UNL1        0.0455
     45 O          63.5390   90.4052   16.3795 O.co2   1  UNL1       -0.5492
     46 C          62.6010   89.2630   16.6357 C.2     1  UNL1        0.0505
     47 O          61.2265   89.2720   16.0350 O.co2   1  UNL1       -0.5492
@<TRIPOS>UNITY_ATOM_ATTR
39 1
charge -1
45 1
charge -1
@<TRIPOS>BOND
     1    45    46   ar
     2    46    47   ar
     3    46    44    1
     4    44    43    1
     5    43    42    1
     6    42    41    1
     7    41    30    1
     8    30    31   ar
     9    31    32   ar
    10    32    33   ar
    11    33    34   ar
    12    34    29    1
    13    29    28    1
    14    28    27    1
    15    27    26    1
    16    26    25    1
    17    25     1    1
    18     1     2    1
    19     2     3    1
    20     3     4   ar
    21     4     5   ar
    22     5    18    1
    23    18    19   ar
    24    19    20   ar
    25    20    21   ar
    26    21    22   ar
    27    22    23    1
    28    22    24   ar
    29     5     6   ar
    30     6     7   ar
    31     7     9    1
    32     9    10   ar
    33    10    11   ar
    34    11    12   ar
    35    12    13   ar
    36    13    14   ar
    37    13    15    1
    38    15    16    1
    39    16    17    1
    40     7     8   ar
    41    34    35   ar
    42    35    36    1
    43    36    37    1
    44    37    38    1
    45    38    39   ar
    46    38    40   ar
    47    35    30   ar
    48     8     3   ar
    49    24    18   ar
    50    14     9   ar
    51    17    12    1
@<TRIPOS>MOLECULE
*****
 47 51 0 0 0
SMALL
GASTEIGER

@<TRIPOS>ATOM
      1 C          61.1374   84.8261    6.9928 C.3     1  UNL1        0.2054
      2 O          60.2166   85.5309    7.9443 O.3     1  UNL1       -0.4755
      3 C          60.2674   87.0248    8.0693 C.ar    1  UNL1        0.1386
      4 C          59.5584   87.8859    7.0664 C.ar    1  UNL1        0.0369
      5 C          59.6092   89.3798    7.1913 C.ar    1  UNL1        0.0031
      6 C          60.3690   90.0127    8.3192 C.ar    1  UNL1        0.0002
      7 C          61.0779   89.1516    9.3222 C.ar    1  UNL1        0.0031
      8 C          61.0271   87.6577    9.1972 C.ar    1  UNL1        0.0369
      9 C          61.8377   89.7845   10.4502 C.ar    1  UNL1        0.0033
     10 C          61.3681   89.6069   11.8636 C.ar    1  UNL1        0.0033
     11 C          62.1279   90.2397   12.9915 C.ar    1  UNL1        0.0402
     12 C          63.3573   91.0502   12.7060 C.ar    1  UNL1        0.1764
     13 C          63.8270   91.2279   11.2925 C.ar    1  UNL1        0.1764
     14 C          63.0673   90.5950   10.1646 C.ar    1  UNL1        0.0402
     15 O          65.0644   92.0753   11.3183 O.3     1  UNL1       -0.4346
     16 C          65.3595   92.4214   12.7476 C.3     1  UNL1        0.4294
     17 O          64.3044   91.7879   13.6053 O.3     1  UNL1       -0.4346
     18 C          58.9002   90.2410    6.1883 C.ar    1  UNL1        0.0023
     19 C          57.4063   90.1784    6.0690 C.ar    1  UNL1        0.0001
     20 C          56.6973   91.0395    5.0661 C.ar    1  UNL1        0.0023
     21 C          57.4822   91.9631    4.1825 C.ar    1  UNL1        0.0296
     22 C          58.9762   92.0257    4.3019 C.ar    1  UNL1        0.1401
     23 F          59.7611   92.9493    3.4183 F       1  UNL1       -0.2042
     24 C          59.6851   91.1646    5.3048 C.ar    1  UNL1        0.0296
     25 C          62.6040   84.7382    7.2950 C.3     1  UNL1        0.0473
     26 C          63.1507   85.3608    8.5454 C.3     1  UNL1        0.0038
     27 C          63.2439   84.5537    9.8063 C.3     1  UNL1        0.0005
     28 C          64.0137   83.2664    9.8176 C.3     1  UNL1        0.0047
     29 C          64.5825   82.7438   11.1035 C.3     1  UNL1        0.0261
     30 C          62.8946   82.6987   14.6950 C.ar    1  UNL1        0.1342
     31 C          61.8380   81.6522   14.4985 C.ar    1  UNL1        0.0365
     32 C          61.6963   80.9696   13.1703 C.ar    1  UNL1        0.0028
     33 C          62.6111   81.3335   12.0386 C.ar    1  UNL1       -0.0044
     34 C          63.6677   82.3799   12.2352 C.ar    1  UNL1       -0.0232
     35 C          63.8095   83.0626   13.5633 C.ar    1  UNL1        0.0082
     36 C          64.8660   84.1090   13.7598 C.3     1  UNL1        0.0350
     37 C          64.4783   85.5531   13.8790 C.3     1  UNL1        0.0465
     38 C          63.3425   86.0945   13.0624 C.2     1  UNL1        0.0507
     39 O          63.4536   87.4495   12.4287 O.co2   1  UNL1       -0.5492
     40 O          62.0956   85.2810   12.8795 O.co2   1  UNL1       -0.5492
     41 O          63.0364   83.3812   16.0232 O.3     1  UNL1       -0.4758
     42 C          62.4428   84.7425   16.2340 C.3     1  UNL1        0.2058
     43 C          63.2384   85.8085   16.9272 C.3     1  UNL1        0.0532
     44 C          62.5919   87.1141   17.2845 C.3     1  UNL1        0.0455
     45 O          63.9977   88.4327   15.5423 O.co2   1  UNL1       -0.5492
     46 C          62.7684   88.3072   16.3927 C.2     1  UNL1        0.0505
     47 O          61.7156   89.3749   16.3513 O.co2   1  UNL1       -0.5492
@<TRIPOS>UNITY_ATOM_ATTR
39 1
charge -1
45 1
charge -1
@<TRIPOS>BOND
     1    45    46   ar
     2    46    47   ar
     3    46    44    1
     4    44    43    1
     5    43    42    1
     6    42    41    1
     7    41    30    1
     8    30    31   ar
     9    31    32   ar
    10    32    33   ar
    11    33    34   ar
    12    34    29    1
    13    29    28    1
    14    28    27    1
    15    27    26    1
    16    26    25    1
    17    25     1    1
    18     1     2    1
    19     2     3    1
    20     3     4   ar
    21     4     5   ar
    22     5    18    1
    23    18    19   ar
    24    19    20   ar
    25    20    21   ar
    26    21    22   ar
    27    22    23    1
    28    22    24   ar
    29     5     6   ar
    30     6     7   ar
    31     7     9    1
    32     9    10   ar
    33    10    11   ar
    34    11    12   ar
    35    12    13   ar
    36    13    14   ar
    37    13    15    1
    38    15    16    1
    39    16    17    1
    40     7     8   ar
    41    34    35   ar
    42    35    36    1
    43    36    37    1
    44    37    38    1
    45    38    39   ar
    46    38    40   ar
    47    35    30   ar
    48     8     3   ar
    49    24    18   ar
    50    14     9   ar
    51    17    12    1
