@<TRIPOS>MOLECULE
*****
 17 19 0 0 0
SMALL
GASTEIGER

@<TRIPOS>ATOM
      1 C          62.8059   83.4114   15.1909 C.3     1  UNL1        0.2210
      2 C          63.0309   82.9364   13.7860 C.3     1  UNL1        0.0982
      3 C          62.5345   81.5859   13.3623 C.3     1  UNL1        0.0196
      4 C          62.7594   81.1109   11.9575 C.3     1  UNL1        0.0029
      5 C          63.4809   81.9865   10.9762 C.3     1  UNL1        0.0158
      6 C          64.2024   82.8621    9.9950 C.3     1  UNL1        0.0170
      7 C          63.9774   83.3371   11.3998 C.3     1  UNL1        0.0541
      8 N          63.7524   83.8120   12.8048 N.3     1  UNL1       -0.2966
      9 H          63.2223   84.6811   12.7405 H       1  UNL1        0.1233
     10 O          63.8640   84.2123   15.8904 O.3     1  UNL1       -0.4724
     11 CL         63.2515   90.1550   16.4462 Cl      1  UNL1       -0.0613
     12 C          63.4046   88.6693   16.3073 C.ar    1  UNL1        0.1386
     13 C          62.8641   87.7571   17.3683 C.ar    1  UNL1        0.0339
     14 C          63.0173   86.2714   17.2293 C.ar    1  UNL1        0.0410
     15 C          63.7109   85.6979   16.0293 C.ar    1  UNL1        0.1578
     16 C          64.2513   86.6101   14.9683 C.ar    1  UNL1        0.1366
     17 N          64.0982   88.0958   15.1072 N.ar    1  UNL1       -0.2293
@<TRIPOS>BOND
     1    11    12    1
     2    12    13   ar
     3    13    14   ar
     4    14    15   ar
     5    15    10    1
     6    10     1    1
     7     2     1    1
     8     2     3    1
     9     3     4    1
    10     5     4    1
    11     5     6    1
    12     7     6    1
    13     7     8    1
    14    15    16   ar
    15    16    17   ar
    16    17    12   ar
    17     8     2    1
    18     7     5    1
    19     8     9    1
@<TRIPOS>MOLECULE
*****
 17 19 0 0 0
SMALL
GASTEIGER

@<TRIPOS>ATOM
      1 C          63.3050   83.3669   14.2214 C.3     1  UNL1        0.2210
      2 C          63.3627   83.6700   12.7535 C.3     1  UNL1        0.0982
      3 C          64.2437   82.8554   11.8535 C.3     1  UNL1        0.0196
      4 C          64.3015   83.1585   10.3856 C.3     1  UNL1        0.0029
      5 C          63.4781   84.2764    9.8177 C.3     1  UNL1        0.0158
      6 C          62.6547   85.3942    9.2498 C.3     1  UNL1        0.0170
      7 C          62.5970   85.0911   10.7177 C.3     1  UNL1        0.0541
      8 N          62.5393   84.7879   12.1857 N.3     1  UNL1       -0.2966
      9 H          61.5657   84.5771   12.4048 H       1  UNL1        0.1233
     10 O          64.2144   84.0871   15.1723 O.3     1  UNL1       -0.4724
     11 CL         63.2424   89.8667   16.4570 Cl      1  UNL1       -0.0613
     12 C          63.4854   88.4219   16.1358 C.ar    1  UNL1        0.1386
     13 C          64.2882   88.0473   14.9254 C.ar    1  UNL1        0.0339
     14 C          64.5312   86.6023   14.6042 C.ar    1  UNL1        0.0410
     15 C          63.9714   85.5320   15.4935 C.ar    1  UNL1        0.1578
     16 C          63.1686   85.9065   16.7040 C.ar    1  UNL1        0.1366
     17 N          62.9256   87.3514   17.0251 N.ar    1  UNL1       -0.2293
@<TRIPOS>BOND
     1    11    12    1
     2    12    13   ar
     3    13    14   ar
     4    14    15   ar
     5    15    10    1
     6    10     1    1
     7     2     1    1
     8     2     3    1
     9     3     4    1
    10     5     4    1
    11     5     6    1
    12     7     6    1
    13     7     8    1
    14    15    16   ar
    15    16    17   ar
    16    17    12   ar
    17     8     2    1
    18     7     5    1
    19     8     9    1
@<TRIPOS>MOLECULE
*****
 17 19 0 0 0
SMALL
GASTEIGER

@<TRIPOS>ATOM
      1 C          66.2224   92.4011   12.8087 C.3     1  UNL1        0.2210
      2 C          66.7339   93.0773   11.5713 C.3     1  UNL1        0.0982
      3 C          67.4807   92.2862   10.5386 C.3     1  UNL1        0.0196
      4 C          67.9922   92.9624    9.3012 C.3     1  UNL1        0.0029
      5 C          67.7570   94.4297    9.0966 C.3     1  UNL1        0.0158
      6 C          67.5217   95.8969    8.8920 C.3     1  UNL1        0.0170
      7 C          67.0102   95.2207   10.1293 C.3     1  UNL1        0.0541
      8 N          66.4986   94.5445   11.3667 N.3     1  UNL1       -0.2966
      9 H          65.4886   94.6858   11.3834 H       1  UNL1        0.1233
     10 O          64.7455   92.2593   13.0299 O.3     1  UNL1       -0.4724
     11 CL         61.7499   87.7330   10.4728 Cl      1  UNL1       -0.0613
     12 C          62.4988   88.8646   11.1120 C.ar    1  UNL1        0.1386
     13 C          62.7462   90.1290   10.3439 C.ar    1  UNL1        0.0339
     14 C          63.4952   91.2606   10.9832 C.ar    1  UNL1        0.0410
     15 C          63.9966   91.1277   12.3906 C.ar    1  UNL1        0.1578
     16 C          63.7492   89.8633   13.1588 C.ar    1  UNL1        0.1366
     17 N          63.0003   88.7318   12.5195 N.ar    1  UNL1       -0.2293
@<TRIPOS>BOND
     1    11    12    1
     2    12    13   ar
     3    13    14   ar
     4    14    15   ar
     5    15    10    1
     6    10     1    1
     7     2     1    1
     8     2     3    1
     9     3     4    1
    10     5     4    1
    11     5     6    1
    12     7     6    1
    13     7     8    1
    14    15    16   ar
    15    16    17   ar
    16    17    12   ar
    17     8     2    1
    18     7     5    1
    19     8     9    1
@<TRIPOS>MOLECULE
*****
 17 19 0 0 0
SMALL
GASTEIGER

@<TRIPOS>ATOM
      1 C          64.3641   84.5653   14.7990 C.3     1  UNL1        0.2210
      2 C          63.9161   85.8107   15.5049 C.3     1  UNL1        0.0982
      3 C          63.2128   85.7122   16.8261 C.3     1  UNL1        0.0196
      4 C          62.7648   86.9576   17.5319 C.3     1  UNL1        0.0029
      5 C          63.0201   88.3016   16.9165 C.3     1  UNL1        0.0158
      6 C          63.2754   89.6455   16.3011 C.3     1  UNL1        0.0170
      7 C          63.7234   88.4001   15.5953 C.3     1  UNL1        0.0541
      8 N          64.1714   87.1546   14.8895 N.3     1  UNL1       -0.2966
      9 H          65.1806   87.2340   14.7640 H       1  UNL1        0.1233
     10 O          63.4037   83.8093   13.9294 O.3     1  UNL1       -0.4724
     11 CL         63.0175   85.0787    8.0779 Cl      1  UNL1       -0.0613
     12 C          63.1141   84.7613    9.5408 C.ar    1  UNL1        0.1386
     13 C          63.8562   83.5398    9.9958 C.ar    1  UNL1        0.0339
     14 C          63.9527   83.2225   11.4588 C.ar    1  UNL1        0.0410
     15 C          63.3072   84.1267   12.4665 C.ar    1  UNL1        0.1578
     16 C          62.5651   85.3483   12.0115 C.ar    1  UNL1        0.1366
     17 N          62.4685   85.6656   10.5486 N.ar    1  UNL1       -0.2293
@<TRIPOS>BOND
     1    11    12    1
     2    12    13   ar
     3    13    14   ar
     4    14    15   ar
     5    15    10    1
     6    10     1    1
     7     2     1    1
     8     2     3    1
     9     3     4    1
    10     5     4    1
    11     5     6    1
    12     7     6    1
    13     7     8    1
    14    15    16   ar
    15    16    17   ar
    16    17    12   ar
    17     8     2    1
    18     7     5    1
    19     8     9    1
@<TRIPOS>MOLECULE
*****
 17 19 0 0 0
SMALL
GASTEIGER

@<TRIPOS>ATOM
      1 C          62.3631   84.4729   15.8048 C.3     1  UNL1        0.2210
      2 C          62.4766   83.4927   14.6751 C.3     1  UNL1        0.0982
      3 C          62.7145   83.9831   13.2776 C.3     1  UNL1        0.0196
      4 C          62.8280   83.0029   12.1479 C.3     1  UNL1        0.0029
      5 C          62.7036   81.5321   12.4157 C.3     1  UNL1        0.0158
      6 C          62.5793   80.0615   12.6835 C.3     1  UNL1        0.0170
      7 C          62.4658   81.0418   13.8132 C.3     1  UNL1        0.0541
      8 N          62.3523   82.0221   14.9429 N.3     1  UNL1       -0.2966
      9 H          63.0812   81.7825   15.6150 H       1  UNL1        0.1233
     10 O          63.5686   85.2464   16.2506 O.3     1  UNL1       -0.4724
     11 CL         63.9142   91.1407   15.1845 Cl      1  UNL1       -0.0613
     12 C          63.8278   89.6672   15.4511 C.ar    1  UNL1        0.1386
     13 C          64.4295   88.6932   14.4819 C.ar    1  UNL1        0.0339
     14 C          64.3431   87.2195   14.7485 C.ar    1  UNL1        0.0410
     15 C          63.6550   86.7199   15.9841 C.ar    1  UNL1        0.1578
     16 C          63.0533   87.6939   16.9533 C.ar    1  UNL1        0.1366
     17 N          63.1397   89.1675   16.6868 N.ar    1  UNL1       -0.2293
@<TRIPOS>BOND
     1    11    12    1
     2    12    13   ar
     3    13    14   ar
     4    14    15   ar
     5    15    10    1
     6    10     1    1
     7     2     1    1
     8     2     3    1
     9     3     4    1
    10     5     4    1
    11     5     6    1
    12     7     6    1
    13     7     8    1
    14    15    16   ar
    15    16    17   ar
    16    17    12   ar
    17     8     2    1
    18     7     5    1
    19     8     9    1
@<TRIPOS>MOLECULE
*****
 17 19 0 0 0
SMALL
GASTEIGER

@<TRIPOS>ATOM
      1 C          60.3123   89.2977   10.8362 C.3     1  UNL1        0.2210
      2 C          61.5897   89.9366   11.2945 C.3     1  UNL1        0.0982
      3 C          62.4478   90.6832   10.3166 C.3     1  UNL1        0.0196
      4 C          63.7252   91.3221   10.7749 C.3     1  UNL1        0.0029
      5 C          64.1445   91.2144   12.2111 C.3     1  UNL1        0.0158
      6 C          64.5638   91.1067   13.6473 C.3     1  UNL1        0.0170
      7 C          63.2864   90.4678   13.1890 C.3     1  UNL1        0.0541
      8 N          62.0090   89.8289   12.7306 N.3     1  UNL1       -0.2966
      9 H          61.2588   90.2377   13.2878 H       1  UNL1        0.1233
     10 O          60.1681   87.8049   10.8644 O.3     1  UNL1       -0.4724
     11 CL         61.9644   84.5282    6.1702 Cl      1  UNL1       -0.0613
     12 C          61.5153   85.3473    7.3437 C.ar    1  UNL1        0.1386
     13 C          62.4810   85.6735    8.4442 C.ar    1  UNL1        0.0339
     14 C          62.0319   86.4927    9.6178 C.ar    1  UNL1        0.0410
     15 C          60.6172   86.9857    9.6909 C.ar    1  UNL1        0.1578
     16 C          59.6515   86.6596    8.5904 C.ar    1  UNL1        0.1366
     17 N          60.1005   85.8404    7.4168 N.ar    1  UNL1       -0.2293
@<TRIPOS>BOND
     1    11    12    1
     2    12    13   ar
     3    13    14   ar
     4    14    15   ar
     5    15    10    1
     6    10     1    1
     7     2     1    1
     8     2     3    1
     9     3     4    1
    10     5     4    1
    11     5     6    1
    12     7     6    1
    13     7     8    1
    14    15    16   ar
    15    16    17   ar
    16    17    12   ar
    17     8     2    1
    18     7     5    1
    19     8     9    1
@<TRIPOS>MOLECULE
*****
 17 19 0 0 0
SMALL
GASTEIGER

@<TRIPOS>ATOM
      1 C          62.7736   85.6389   11.9066 C.3     1  UNL1        0.2210
      2 C          62.8544   84.1427   11.9774 C.3     1  UNL1        0.0982
      3 C          63.3809   83.3639   10.8085 C.3     1  UNL1        0.0196
      4 C          63.4618   81.8678   10.8793 C.3     1  UNL1        0.0029
      5 C          63.0160   81.1504   12.1190 C.3     1  UNL1        0.0158
      6 C          62.5703   80.4331   13.3586 C.3     1  UNL1        0.0170
      7 C          62.4895   81.9292   13.2878 C.3     1  UNL1        0.0541
      8 N          62.4087   83.4254   13.2170 N.3     1  UNL1       -0.2966
      9 H          62.9729   83.7875   13.9857 H       1  UNL1        0.1233
     10 O          61.4372   86.3198   11.9310 O.3     1  UNL1       -0.4724
     11 CL         59.3766   89.0607    7.0075 Cl      1  UNL1       -0.0613
     12 C          59.8917   88.3754    8.2384 C.ar    1  UNL1        0.1386
     13 C          60.2722   86.9255    8.1859 C.ar    1  UNL1        0.0339
     14 C          60.7874   86.2402    9.4168 C.ar    1  UNL1        0.0410
     15 C          60.9220   87.0050   10.7001 C.ar    1  UNL1        0.1578
     16 C          60.5415   88.4550   10.7526 C.ar    1  UNL1        0.1366
     17 N          60.0264   89.1402    9.5218 N.ar    1  UNL1       -0.2293
@<TRIPOS>BOND
     1    11    12    1
     2    12    13   ar
     3    13    14   ar
     4    14    15   ar
     5    15    10    1
     6    10     1    1
     7     2     1    1
     8     2     3    1
     9     3     4    1
    10     5     4    1
    11     5     6    1
    12     7     6    1
    13     7     8    1
    14    15    16   ar
    15    16    17   ar
    16    17    12   ar
    17     8     2    1
    18     7     5    1
    19     8     9    1
@<TRIPOS>MOLECULE
*****
 17 19 0 0 0
SMALL
GASTEIGER

@<TRIPOS>ATOM
      1 C          63.3107   83.1678   12.0097 C.3     1  UNL1        0.2210
      2 C          62.9367   84.2181   11.0063 C.3     1  UNL1        0.0982
      3 C          63.4805   84.1490    9.6101 C.3     1  UNL1        0.0196
      4 C          63.1064   85.1993    8.6067 C.3     1  UNL1        0.0029
      5 C          62.1885   86.3188    8.9995 C.3     1  UNL1        0.0158
      6 C          61.2706   87.4382    9.3923 C.3     1  UNL1        0.0170
      7 C          61.6447   86.3879   10.3957 C.3     1  UNL1        0.0541
      8 N          62.0188   85.3375   11.3992 N.3     1  UNL1       -0.2966
      9 H          61.1489   84.9082   11.7142 H       1  UNL1        0.1233
     10 O          64.3022   83.4824   13.0906 O.3     1  UNL1       -0.4724
     11 CL         62.6041   86.6640   17.8857 Cl      1  UNL1       -0.0613
     12 C          63.0286   85.8686   16.6869 C.ar    1  UNL1        0.1386
     13 C          64.1591   86.3523   15.8279 C.ar    1  UNL1        0.0339
     14 C          64.5836   85.5569   14.6290 C.ar    1  UNL1        0.0410
     15 C          63.8776   84.2777   14.2893 C.ar    1  UNL1        0.1578
     16 C          62.7472   83.7940   15.1484 C.ar    1  UNL1        0.1366
     17 N          62.3226   84.5894   16.3472 N.ar    1  UNL1       -0.2293
@<TRIPOS>BOND
     1    11    12    1
     2    12    13   ar
     3    13    14   ar
     4    14    15   ar
     5    15    10    1
     6    10     1    1
     7     2     1    1
     8     2     3    1
     9     3     4    1
    10     5     4    1
    11     5     6    1
    12     7     6    1
    13     7     8    1
    14    15    16   ar
    15    16    17   ar
    16    17    12   ar
    17     8     2    1
    18     7     5    1
    19     8     9    1
@<TRIPOS>MOLECULE
*****
 17 19 0 0 0
SMALL
GASTEIGER

@<TRIPOS>ATOM
      1 C          62.2596   86.3610   11.0693 C.3     1  UNL1        0.2210
      2 C          61.6463   87.7291   11.0239 C.3     1  UNL1        0.0982
      3 C          62.3588   88.8475   10.3229 C.3     1  UNL1        0.0196
      4 C          61.7455   90.2156   10.2776 C.3     1  UNL1        0.0029
      5 C          60.4197   90.4653   10.9333 C.3     1  UNL1        0.0158
      6 C          59.0939   90.7150   11.5889 C.3     1  UNL1        0.0170
      7 C          59.7072   89.3469   11.6343 C.3     1  UNL1        0.0541
      8 N          60.3205   87.9787   11.6796 N.3     1  UNL1       -0.2966
      9 H          59.6526   87.3420   11.2450 H       1  UNL1        0.1233
     10 O          62.8299   85.8368   12.3539 O.3     1  UNL1       -0.4724
     11 CL         62.3809   80.0015   13.6755 Cl      1  UNL1       -0.0613
     12 C          62.4931   81.4603   13.3451 C.ar    1  UNL1        0.1386
     13 C          62.7172   81.8929   11.9264 C.ar    1  UNL1        0.0339
     14 C          62.8295   83.3518   11.5960 C.ar    1  UNL1        0.0410
     15 C          62.7176   84.3780   12.6843 C.ar    1  UNL1        0.1578
     16 C          62.4935   83.9454   14.1030 C.ar    1  UNL1        0.1366
     17 N          62.3812   82.4866   14.4334 N.ar    1  UNL1       -0.2293
@<TRIPOS>BOND
     1    11    12    1
     2    12    13   ar
     3    13    14   ar
     4    14    15   ar
     5    15    10    1
     6    10     1    1
     7     2     1    1
     8     2     3    1
     9     3     4    1
    10     5     4    1
    11     5     6    1
    12     7     6    1
    13     7     8    1
    14    15    16   ar
    15    16    17   ar
    16    17    12   ar
    17     8     2    1
    18     7     5    1
    19     8     9    1
