@<TRIPOS>MOLECULE
*****
 26 28 0 0 0
SMALL
GASTEIGER

@<TRIPOS>ATOM
      1 C          63.8832   86.6121   15.5600 C.ar    1  UNL1        0.1534
      2 C          64.2636   87.5162   14.4252 C.ar    1  UNL1        0.0351
      3 C          64.0872   88.9999   14.5569 C.ar    1  UNL1        0.0722
      4 CL         64.4676   89.9041   13.4220 Cl      1  UNL1       -0.0809
      5 C          63.5304   89.5795   15.8234 C.ar    1  UNL1        0.0578
      6 C          63.1500   88.6754   16.9582 C.ar    1  UNL1        0.0462
      7 C          63.3264   87.1917   16.8265 C.ar    1  UNL1        0.1602
      8 F          62.9461   86.2875   17.9614 F       1  UNL1       -0.2027
      9 O          65.5102   85.3296   15.1038 O.2     1  UNL1       -0.1498
     10 S          64.0597   85.1283   15.4284 S.O2    1  UNL1        0.0772
     11 O          62.6091   84.9270   15.7530 O.2     1  UNL1       -0.1498
     12 N          64.2361   83.6445   15.2967 N.pl3   1  UNL1       -0.1936
     13 H          64.8614   83.1686   15.8899 H       1  UNL1        0.1758
     14 C          63.4599   82.8858   14.2614 C.ar    1  UNL1        0.1786
     15 N          62.4557   81.8043   14.5293 N.ar    1  UNL1       -0.2214
     16 C          61.9268   81.3256   13.2099 C.ar    1  UNL1        0.1079
     17 C          62.6041   82.1112   12.1263 C.ar    1  UNL1        0.0588
     18 S          63.5517   83.0756   12.7762 S.2     1  UNL1       -0.0497
     19 N          63.3540   91.0633   15.9550 N.pl3   1  UNL1       -0.3279
     20 H          62.5686   91.5030   15.5560 H       1  UNL1        0.1470
     21 C          64.3741   91.8772   16.6945 C.3     1  UNL1        0.1493
     22 C          65.5313   92.4809   15.9552 C.3     1  UNL1        0.2556
     23 O          66.8588   92.8516   16.5470 O.3     1  UNL1       -0.3265
     24 C          67.7121   93.4197   15.4519 C.3     1  UNL1        0.1769
     25 C          66.9118   93.4001   14.1833 C.3     1  UNL1        0.1769
     26 O          65.5640   92.8199   14.4944 O.3     1  UNL1       -0.3265
@<TRIPOS>BOND
     1     9    10    2
     2    10    11    2
     3    10    12    1
     4    12    14    1
     5    14    15   ar
     6    15    16   ar
     7    16    17   ar
     8    17    18   ar
     9    10     1    1
    10     1     2   ar
    11     2     3   ar
    12     3     4    1
    13     3     5   ar
    14     5    19    1
    15    19    21    1
    16    21    22    1
    17    22    23    1
    18    23    24    1
    19    24    25    1
    20    25    26    1
    21     5     6   ar
    22     6     7   ar
    23     7     8    1
    24    18    14   ar
    25     7     1   ar
    26    26    22    1
    27    12    13    1
    28    19    20    1
@<TRIPOS>MOLECULE
*****
 26 28 0 0 0
SMALL
GASTEIGER

@<TRIPOS>ATOM
      1 C          63.1788   90.3826   11.9001 C.ar    1  UNL1        0.1534
      2 C          63.8933   90.5206   13.2117 C.ar    1  UNL1        0.0351
      3 C          65.0109   91.5105   13.3564 C.ar    1  UNL1        0.0722
      4 CL         65.7254   91.6486   14.6681 Cl      1  UNL1       -0.0809
      5 C          65.4140   92.3624   12.1895 C.ar    1  UNL1        0.0578
      6 C          64.6996   92.2244   10.8779 C.ar    1  UNL1        0.0462
      7 C          63.5820   91.2345   10.7332 C.ar    1  UNL1        0.1602
      8 F          62.8674   91.0964    9.4215 F       1  UNL1       -0.2027
      9 O          61.1055   90.5132   11.4709 O.2     1  UNL1       -0.1498
     10 S          62.0612   89.3926   11.7553 S.O2    1  UNL1        0.0772
     11 O          63.0168   88.2720   12.0397 O.2     1  UNL1       -0.1498
     12 N          60.9436   88.4027   11.6106 N.pl3   1  UNL1       -0.1936
     13 H          60.4163   88.1369   12.3984 H       1  UNL1        0.1758
     14 C          60.6292   87.8178   10.2655 C.ar    1  UNL1        0.1786
     15 N          59.9064   88.5119    9.1494 N.ar    1  UNL1       -0.2214
     16 C          59.8129   87.5592    7.9945 C.ar    1  UNL1        0.1079
     17 C          60.4780   86.2763    8.3969 C.ar    1  UNL1        0.0588
     18 S          60.9825   86.4362    9.8006 S.2     1  UNL1       -0.0497
     19 N          66.5317   93.3524   12.3342 N.pl3   1  UNL1       -0.3279
     20 H          67.4158   93.0542   12.6483 H       1  UNL1        0.1470
     21 C          66.3023   94.7966   12.0004 C.3     1  UNL1        0.1493
     22 C          66.7196   95.3328   10.6630 C.3     1  UNL1        0.2556
     23 O          66.9963   94.5184    9.4341 O.3     1  UNL1       -0.3265
     24 C          67.3811   95.4597    8.3313 C.3     1  UNL1        0.1769
     25 C          67.3422   96.8557    8.8788 C.3     1  UNL1        0.1769
     26 O          66.9333   96.7772   10.3199 O.3     1  UNL1       -0.3265
@<TRIPOS>BOND
     1     9    10    2
     2    10    11    2
     3    10    12    1
     4    12    14    1
     5    14    15   ar
     6    15    16   ar
     7    16    17   ar
     8    17    18   ar
     9    10     1    1
    10     1     2   ar
    11     2     3   ar
    12     3     4    1
    13     3     5   ar
    14     5    19    1
    15    19    21    1
    16    21    22    1
    17    22    23    1
    18    23    24    1
    19    24    25    1
    20    25    26    1
    21     5     6   ar
    22     6     7   ar
    23     7     8    1
    24    18    14   ar
    25     7     1   ar
    26    26    22    1
    27    12    13    1
    28    19    20    1
@<TRIPOS>MOLECULE
*****
 26 28 0 0 0
SMALL
GASTEIGER

@<TRIPOS>ATOM
      1 C          62.6557   89.8486   11.8959 C.ar    1  UNL1        0.1534
      2 C          63.1854   89.8004   13.2984 C.ar    1  UNL1        0.0351
      3 C          64.2499   90.7643   13.7316 C.ar    1  UNL1        0.0722
      4 CL         64.7796   90.7162   15.1341 Cl      1  UNL1       -0.0809
      5 C          64.7847   91.7764   12.7622 C.ar    1  UNL1        0.0578
      6 C          64.2551   91.8245   11.3597 C.ar    1  UNL1        0.0462
      7 C          63.1906   90.8606   10.9265 C.ar    1  UNL1        0.1602
      8 F          62.6609   90.9088    9.5239 F       1  UNL1       -0.2027
      9 O          60.5880   89.6131   12.3070 O.2     1  UNL1       -0.1498
     10 S          61.5911   88.8846   11.4627 S.O2    1  UNL1        0.0772
     11 O          62.5943   88.1562   10.6183 O.2     1  UNL1       -0.1498
     12 N          60.5266   87.9208   11.0295 N.pl3   1  UNL1       -0.1936
     13 H          60.1321   87.2975   11.6815 H       1  UNL1        0.1758
     14 C          60.0632   87.9066    9.6029 C.ar    1  UNL1        0.1786
     15 N          59.8428   89.1102    8.7354 N.ar    1  UNL1       -0.2214
     16 C          59.3822   88.6337    7.3897 C.ar    1  UNL1        0.1079
     17 C          59.3178   87.1355    7.4256 C.ar    1  UNL1        0.0588
     18 S          59.7387   86.6861    8.7935 S.2     1  UNL1       -0.0497
     19 N          65.8493   92.7403   13.1954 N.pl3   1  UNL1       -0.3279
     20 H          65.6151   93.5097   13.7632 H       1  UNL1        0.1470
     21 C          67.2705   92.5319   12.7635 C.3     1  UNL1        0.1493
     22 C          67.6723   92.8122   11.3457 C.3     1  UNL1        0.2556
     23 O          67.2690   94.0080   10.5350 O.3     1  UNL1       -0.3265
     24 C          67.8953   93.8807    9.1779 C.3     1  UNL1        0.1769
     25 C          68.6858   92.6061    9.1500 C.3     1  UNL1        0.1769
     26 O          68.5479   91.9458   10.4898 O.3     1  UNL1       -0.3265
@<TRIPOS>BOND
     1     9    10    2
     2    10    11    2
     3    10    12    1
     4    12    14    1
     5    14    15   ar
     6    15    16   ar
     7    16    17   ar
     8    17    18   ar
     9    10     1    1
    10     1     2   ar
    11     2     3   ar
    12     3     4    1
    13     3     5   ar
    14     5    19    1
    15    19    21    1
    16    21    22    1
    17    22    23    1
    18    23    24    1
    19    24    25    1
    20    25    26    1
    21     5     6   ar
    22     6     7   ar
    23     7     8    1
    24    18    14   ar
    25     7     1   ar
    26    26    22    1
    27    12    13    1
    28    19    20    1
@<TRIPOS>MOLECULE
*****
 26 28 0 0 0
SMALL
GASTEIGER

@<TRIPOS>ATOM
      1 C          64.7108   91.6474   11.8725 C.ar    1  UNL1        0.1534
      2 C          63.7387   91.5385   10.7354 C.ar    1  UNL1        0.0351
      3 C          62.7036   90.4529   10.7351 C.ar    1  UNL1        0.0722
      4 CL         61.7314   90.3440    9.5980 Cl      1  UNL1       -0.0809
      5 C          62.6407   89.4762   11.8718 C.ar    1  UNL1        0.0578
      6 C          63.6128   89.5851   13.0089 C.ar    1  UNL1        0.0462
      7 C          64.6479   90.6707   13.0092 C.ar    1  UNL1        0.1602
      8 F          65.6202   90.7797   14.1463 F       1  UNL1       -0.2027
      9 O          65.2895   93.1678   13.2340 O.2     1  UNL1       -0.1498
     10 S          65.7460   92.7331   11.8729 S.O2    1  UNL1        0.0772
     11 O          66.2025   92.2984   10.5118 O.2     1  UNL1       -0.1498
     12 N          66.7811   93.8187   11.8734 N.pl3   1  UNL1       -0.1936
     13 H          67.4564   93.8546   12.5889 H       1  UNL1        0.1758
     14 C          66.7873   94.8495   10.7837 C.ar    1  UNL1        0.1786
     15 N          67.7795   94.9414    9.6625 N.ar    1  UNL1       -0.2214
     16 C          67.4078   96.1181    8.8098 C.ar    1  UNL1        0.1079
     17 C          66.1858   96.7535    9.4040 C.ar    1  UNL1        0.0588
     18 S          65.8023   95.9694   10.6240 S.2     1  UNL1       -0.0497
     19 N          61.6055   88.3906   11.8714 N.pl3   1  UNL1       -0.3279
     20 H          60.7888   88.4890   12.4122 H       1  UNL1        0.1470
     21 C          61.8148   87.1550   11.0471 C.3     1  UNL1        0.1493
     22 C          62.4037   85.9260   11.6740 C.3     1  UNL1        0.2556
     23 O          62.3653   84.5399   11.1020 O.3     1  UNL1       -0.3265
     24 C          63.0722   83.6246   12.0574 C.3     1  UNL1        0.1769
     25 C          63.5475   84.4451   13.2197 C.3     1  UNL1        0.1769
     26 O          63.1343   85.8675   12.9827 O.3     1  UNL1       -0.3265
@<TRIPOS>BOND
     1     9    10    2
     2    10    11    2
     3    10    12    1
     4    12    14    1
     5    14    15   ar
     6    15    16   ar
     7    16    17   ar
     8    17    18   ar
     9    10     1    1
    10     1     2   ar
    11     2     3   ar
    12     3     4    1
    13     3     5   ar
    14     5    19    1
    15    19    21    1
    16    21    22    1
    17    22    23    1
    18    23    24    1
    19    24    25    1
    20    25    26    1
    21     5     6   ar
    22     6     7   ar
    23     7     8    1
    24    18    14   ar
    25     7     1   ar
    26    26    22    1
    27    12    13    1
    28    19    20    1
@<TRIPOS>MOLECULE
*****
 26 28 0 0 0
SMALL
GASTEIGER

@<TRIPOS>ATOM
      1 C          64.7368   91.6901   11.8931 C.ar    1  UNL1        0.1534
      2 C          63.7569   91.5846   10.7624 C.ar    1  UNL1        0.0351
      3 C          62.7297   90.4915   10.7597 C.ar    1  UNL1        0.0722
      4 CL         61.7497   90.3859    9.6290 Cl      1  UNL1       -0.0809
      5 C          62.6826   89.5039   11.8877 C.ar    1  UNL1        0.0578
      6 C          63.6625   89.6094   13.0185 C.ar    1  UNL1        0.0462
      7 C          64.6896   90.7025   13.0211 C.ar    1  UNL1        0.1602
      8 F          65.6696   90.8081   14.1519 F       1  UNL1       -0.2027
      9 O          65.3350   93.1829   13.2765 O.2     1  UNL1       -0.1498
     10 S          65.7640   92.7833   11.8958 S.O2    1  UNL1        0.0772
     11 O          66.1930   92.3837   10.5152 O.2     1  UNL1       -0.1498
     12 N          66.7911   93.8764   11.8986 N.pl3   1  UNL1       -0.1936
     13 H          67.4803   93.9025   12.6012 H       1  UNL1        0.1758
     14 C          66.7683   94.9298   10.8309 C.ar    1  UNL1        0.1786
     15 N          67.7400   95.0551    9.6951 N.ar    1  UNL1       -0.2214
     16 C          67.3420   96.2455    8.8738 C.ar    1  UNL1        0.1079
     17 C          66.1243   96.8559    9.5020 C.ar    1  UNL1        0.0588
     18 S          65.7697   96.0427   10.7116 S.2     1  UNL1       -0.0497
     19 N          61.6554   88.4107   11.8850 N.pl3   1  UNL1       -0.3279
     20 H          60.8317   88.5079   12.4155 H       1  UNL1        0.1470
     21 C          61.8831   87.1696   11.0741 C.3     1  UNL1        0.1493
     22 C          61.0453   86.9037    9.8585 C.3     1  UNL1        0.2556
     23 O          59.7149   87.5249    9.5516 O.3     1  UNL1       -0.3265
     24 C          59.2382   86.9751    8.2398 C.3     1  UNL1        0.1769
     25 C          60.2741   86.0141    7.7361 C.3     1  UNL1        0.1769
     26 O          61.3909   85.9700    8.7365 O.3     1  UNL1       -0.3265
@<TRIPOS>BOND
     1     9    10    2
     2    10    11    2
     3    10    12    1
     4    12    14    1
     5    14    15   ar
     6    15    16   ar
     7    16    17   ar
     8    17    18   ar
     9    10     1    1
    10     1     2   ar
    11     2     3   ar
    12     3     4    1
    13     3     5   ar
    14     5    19    1
    15    19    21    1
    16    21    22    1
    17    22    23    1
    18    23    24    1
    19    24    25    1
    20    25    26    1
    21     5     6   ar
    22     6     7   ar
    23     7     8    1
    24    18    14   ar
    25     7     1   ar
    26    26    22    1
    27    12    13    1
    28    19    20    1
@<TRIPOS>MOLECULE
*****
 26 28 0 0 0
SMALL
GASTEIGER

@<TRIPOS>ATOM
      1 C          63.8179   86.4671   13.8201 C.ar    1  UNL1        0.1534
      2 C          64.2849   87.6157   14.6642 C.ar    1  UNL1        0.0351
      3 C          64.0669   89.0251   14.1996 C.ar    1  UNL1        0.0722
      4 CL         64.5339   90.1738   15.0437 Cl      1  UNL1       -0.0809
      5 C          63.3820   89.2860   12.8908 C.ar    1  UNL1        0.0578
      6 C          62.9151   88.1374   12.0467 C.ar    1  UNL1        0.0462
      7 C          63.1330   86.7279   12.5113 C.ar    1  UNL1        0.1602
      8 F          62.6660   85.5792   11.6672 F       1  UNL1       -0.2027
      9 O          65.5178   85.2393   14.1409 O.2     1  UNL1       -0.1498
     10 S          64.0358   85.0575   14.2847 S.O2    1  UNL1        0.0772
     11 O          62.5539   84.8758   14.4285 O.2     1  UNL1       -0.1498
     12 N          64.2538   83.6481   14.7493 N.pl3   1  UNL1       -0.1936
     13 H          64.8291   83.4699   15.5280 H       1  UNL1        0.1758
     14 C          63.5951   82.5101   14.0273 C.ar    1  UNL1        0.1786
     15 N          62.5899   81.5607   14.6089 N.ar    1  UNL1       -0.2214
     16 C          62.1997   80.5855   13.5380 C.ar    1  UNL1        0.1079
     17 C          62.9637   80.9322   12.2946 C.ar    1  UNL1        0.0588
     18 S          63.8262   82.1217   12.5970 S.2     1  UNL1       -0.0497
     19 N          63.1641   90.6955   12.4262 N.pl3   1  UNL1       -0.3279
     20 H          62.4439   91.2382   12.8212 H       1  UNL1        0.1470
     21 C          64.0435   91.2781   11.3598 C.3     1  UNL1        0.1493
     22 C          64.9470   92.4318   11.6802 C.3     1  UNL1        0.2556
     23 O          65.4524   92.8039   13.0426 O.3     1  UNL1       -0.3265
     24 C          66.3215   94.0181   12.8989 C.3     1  UNL1        0.1769
     25 C          66.3532   94.3963   11.4477 C.3     1  UNL1        0.1769
     26 O          65.5037   93.4159   10.6945 O.3     1  UNL1       -0.3265
@<TRIPOS>BOND
     1     9    10    2
     2    10    11    2
     3    10    12    1
     4    12    14    1
     5    14    15   ar
     6    15    16   ar
     7    16    17   ar
     8    17    18   ar
     9    10     1    1
    10     1     2   ar
    11     2     3   ar
    12     3     4    1
    13     3     5   ar
    14     5    19    1
    15    19    21    1
    16    21    22    1
    17    22    23    1
    18    23    24    1
    19    24    25    1
    20    25    26    1
    21     5     6   ar
    22     6     7   ar
    23     7     8    1
    24    18    14   ar
    25     7     1   ar
    26    26    22    1
    27    12    13    1
    28    19    20    1
@<TRIPOS>MOLECULE
*****
 26 28 0 0 0
SMALL
GASTEIGER

@<TRIPOS>ATOM
      1 C          63.7239   90.7229   11.9203 C.ar    1  UNL1        0.1534
      2 C          62.7631   90.7382   10.7686 C.ar    1  UNL1        0.0351
      3 C          61.8953   89.5447   10.5000 C.ar    1  UNL1        0.0722
      4 CL         60.9344   89.5599    9.3482 Cl      1  UNL1       -0.0809
      5 C          61.9883   88.3358   11.3832 C.ar    1  UNL1        0.0578
      6 C          62.9491   88.3204   12.5349 C.ar    1  UNL1        0.0462
      7 C          63.8169   89.5140   12.8035 C.ar    1  UNL1        0.1602
      8 F          64.7778   89.4987   13.9553 F       1  UNL1       -0.2027
      9 O          64.1381   91.9247   13.6186 O.2     1  UNL1       -0.1498
     10 S          64.5918   91.9165   12.1890 S.O2    1  UNL1        0.0772
     11 O          65.0456   91.9084   10.7593 O.2     1  UNL1       -0.1498
     12 N          65.4597   93.1101   12.4577 N.pl3   1  UNL1       -0.1936
     13 H          65.3230   93.9424   11.9499 H       1  UNL1        0.1758
     14 C          66.5359   93.0355   13.5000 C.ar    1  UNL1        0.1786
     15 N          66.7326   93.9968   14.6345 N.ar    1  UNL1       -0.2214
     16 C          67.9225   93.5420   15.4264 C.ar    1  UNL1        0.1079
     17 C          68.4613   92.2995   14.7814 C.ar    1  UNL1        0.0588
     18 S          67.6042   91.9865   13.5907 S.2     1  UNL1       -0.0497
     19 N          61.1203   87.1422   11.1145 N.pl3   1  UNL1       -0.3279
     20 H          60.1490   87.1959   11.2654 H       1  UNL1        0.1470
     21 C          61.7325   85.8667   10.6160 C.3     1  UNL1        0.1493
     22 C          62.3126   84.8830   11.5886 C.3     1  UNL1        0.2556
     23 O          62.9893   83.5910   11.2379 O.3     1  UNL1       -0.3265
     24 C          63.4128   82.9280   12.5151 C.3     1  UNL1        0.1769
     25 C          62.9978   83.8103   13.6551 C.3     1  UNL1        0.1769
     26 O          62.3179   85.0185   13.0824 O.3     1  UNL1       -0.3265
@<TRIPOS>BOND
     1     9    10    2
     2    10    11    2
     3    10    12    1
     4    12    14    1
     5    14    15   ar
     6    15    16   ar
     7    16    17   ar
     8    17    18   ar
     9    10     1    1
    10     1     2   ar
    11     2     3   ar
    12     3     4    1
    13     3     5   ar
    14     5    19    1
    15    19    21    1
    16    21    22    1
    17    22    23    1
    18    23    24    1
    19    24    25    1
    20    25    26    1
    21     5     6   ar
    22     6     7   ar
    23     7     8    1
    24    18    14   ar
    25     7     1   ar
    26    26    22    1
    27    12    13    1
    28    19    20    1
@<TRIPOS>MOLECULE
*****
 26 28 0 0 0
SMALL
GASTEIGER

@<TRIPOS>ATOM
      1 C          63.0299   90.2892   12.0292 C.ar    1  UNL1        0.1534
      2 C          63.6539   91.0266   10.8818 C.ar    1  UNL1        0.0351
      3 C          64.8116   91.9491   11.1239 C.ar    1  UNL1        0.0722
      4 CL         65.4357   92.6866    9.9764 Cl      1  UNL1       -0.0809
      5 C          65.3453   92.1342   12.5135 C.ar    1  UNL1        0.0578
      6 C          64.7213   91.3968   13.6609 C.ar    1  UNL1        0.0462
      7 C          63.5636   90.4743   13.4188 C.ar    1  UNL1        0.1602
      8 F          62.9395   89.7368   14.5663 F       1  UNL1       -0.2027
      9 O          60.9867   90.5477   11.5211 O.2     1  UNL1       -0.1498
     10 S          61.8722   89.3666   11.7871 S.O2    1  UNL1        0.0772
     11 O          62.7577   88.1855   12.0532 O.2     1  UNL1       -0.1498
     12 N          60.7144   88.4441   11.5451 N.pl3   1  UNL1       -0.1936
     13 H          60.1109   88.2068   12.2858 H       1  UNL1        0.1758
     14 C          60.4762   87.8833   10.1744 C.ar    1  UNL1        0.1786
     15 N          59.8129   88.5959    9.0332 N.ar    1  UNL1       -0.2214
     16 C          59.7862   87.6644    7.8578 C.ar    1  UNL1        0.1079
     17 C          60.4330   86.3760    8.2725 C.ar    1  UNL1        0.0588
     18 S          60.8595   86.5114    9.7043 S.2     1  UNL1       -0.0497
     19 N          66.5031   93.0568   12.7556 N.pl3   1  UNL1       -0.3279
     20 H          67.3964   92.6873   12.9418 H       1  UNL1        0.1470
     21 C          66.2997   94.5423   12.7139 C.3     1  UNL1        0.1493
     22 C          66.4089   95.2781   11.4113 C.3     1  UNL1        0.2556
     23 O          65.4630   96.3291   10.9104 O.3     1  UNL1       -0.3265
     24 C          65.9525   96.7926    9.5704 C.3     1  UNL1        0.1769
     25 C          67.2009   96.0280    9.2431 C.3     1  UNL1        0.1769
     26 O          67.4829   95.0920   10.3808 O.3     1  UNL1       -0.3265
@<TRIPOS>BOND
     1     9    10    2
     2    10    11    2
     3    10    12    1
     4    12    14    1
     5    14    15   ar
     6    15    16   ar
     7    16    17   ar
     8    17    18   ar
     9    10     1    1
    10     1     2   ar
    11     2     3   ar
    12     3     4    1
    13     3     5   ar
    14     5    19    1
    15    19    21    1
    16    21    22    1
    17    22    23    1
    18    23    24    1
    19    24    25    1
    20    25    26    1
    21     5     6   ar
    22     6     7   ar
    23     7     8    1
    24    18    14   ar
    25     7     1   ar
    26    26    22    1
    27    12    13    1
    28    19    20    1
@<TRIPOS>MOLECULE
*****
 26 28 0 0 0
SMALL
GASTEIGER

@<TRIPOS>ATOM
      1 C          62.9382   88.7052   12.0160 C.ar    1  UNL1        0.1534
      2 C          63.6494   89.0691   13.2856 C.ar    1  UNL1        0.0351
      3 C          64.3090   90.4097   13.4179 C.ar    1  UNL1        0.0722
      4 CL         65.0202   90.7737   14.6875 Cl      1  UNL1       -0.0809
      5 C          64.2575   91.3865   12.2806 C.ar    1  UNL1        0.0578
      6 C          63.5463   91.0226   11.0111 C.ar    1  UNL1        0.0462
      7 C          62.8866   89.6820   10.8788 C.ar    1  UNL1        0.1602
      8 F          62.1754   89.3181    9.6092 F       1  UNL1       -0.2027
      9 O          63.4245   86.7287   12.6133 O.2     1  UNL1       -0.1498
     10 S          62.2785   87.3646   11.8837 S.O2    1  UNL1        0.0772
     11 O          61.1325   88.0004   11.1541 O.2     1  UNL1       -0.1498
     12 N          61.6189   86.0239   11.7513 N.pl3   1  UNL1       -0.1936
     13 H          60.6559   85.9291   11.9327 H       1  UNL1        0.1758
     14 C          62.4265   84.8277   11.3427 C.ar    1  UNL1        0.1786
     15 N          62.7064   83.6217   12.1897 N.ar    1  UNL1       -0.2214
     16 C          63.5489   82.6762   11.3858 C.ar    1  UNL1        0.1079
     17 C          63.7897   83.2978   10.0420 C.ar    1  UNL1        0.0588
     18 S          63.0960   84.6276   10.0154 S.2     1  UNL1       -0.0497
     19 N          64.9172   92.7272   12.4130 N.pl3   1  UNL1       -0.3279
     20 H          64.3688   93.5357   12.5347 H       1  UNL1        0.1470
     21 C          66.4122   92.8359   12.3598 C.3     1  UNL1        0.1493
     22 C          67.0969   93.1322   11.0584 C.3     1  UNL1        0.2556
     23 O          67.7568   92.1279   10.1608 O.3     1  UNL1       -0.3265
     24 C          68.3096   92.8598    8.9738 C.3     1  UNL1        0.1769
     25 C          67.9913   94.3165    9.1380 C.3     1  UNL1        0.1769
     26 O          67.2419   94.4848   10.4264 O.3     1  UNL1       -0.3265
@<TRIPOS>BOND
     1     9    10    2
     2    10    11    2
     3    10    12    1
     4    12    14    1
     5    14    15   ar
     6    15    16   ar
     7    16    17   ar
     8    17    18   ar
     9    10     1    1
    10     1     2   ar
    11     2     3   ar
    12     3     4    1
    13     3     5   ar
    14     5    19    1
    15    19    21    1
    16    21    22    1
    17    22    23    1
    18    23    24    1
    19    24    25    1
    20    25    26    1
    21     5     6   ar
    22     6     7   ar
    23     7     8    1
    24    18    14   ar
    25     7     1   ar
    26    26    22    1
    27    12    13    1
    28    19    20    1
