@<TRIPOS>MOLECULE
*****
 40 45 0 0 0
SMALL
GASTEIGER

@<TRIPOS>ATOM
      1 N          60.7782   95.5994   -0.0218 N.3     1  UNL1       -0.2676
      2 C          61.3590   95.4132   -1.3921 C.3     1  UNL1        0.0746
      3 C          60.4646   95.4409   -2.5959 C.3     1  UNL1        0.0449
      4 C          58.9893   95.6549   -2.4294 C.3     1  UNL1        0.1391
      5 C          58.4085   95.8411   -1.0591 C.3     1  UNL1        0.0449
      6 C          59.3029   95.8134    0.1447 C.3     1  UNL1        0.0746
      7 C          57.5032   95.8581   -2.4191 C.2     1  UNL1        0.2529
      8 O          56.6505   96.0693   -1.2032 O.2     1  UNL1       -0.2724
      9 N          57.0193   95.8131   -3.8383 N.am    1  UNL1       -0.1907
     10 C          58.2065   95.5820   -4.7256 C.2     1  UNL1        0.3219
     11 O          58.1806   95.4686   -6.2210 O.2     1  UNL1       -0.2512
     12 N          59.4240   95.4842   -3.8549 N.am    1  UNL1       -0.2222
     13 C          60.8294   95.2559   -4.3268 C.ar    1  UNL1        0.1453
     14 C          61.4657   93.9074   -4.1633 C.ar    1  UNL1        0.0922
     15 C          62.8711   93.6792   -4.6351 C.ar    1  UNL1        0.2259
     16 O          63.5075   92.3308   -4.4716 O.3     1  UNL1       -0.4919
     17 N          63.6403   94.7994   -5.2705 N.ar    1  UNL1       -0.1894
     18 C          63.0039   96.1478   -5.4340 C.ar    1  UNL1        0.2027
     19 N          61.5985   96.3761   -4.9622 N.ar    1  UNL1       -0.2084
     20 H          63.0271   91.6310   -4.0747 H       1  UNL1        0.2938
     21 C          55.5979   95.9713   -4.2907 C.ar    1  UNL1        0.0622
     22 C          55.1977   95.5406   -5.6705 C.ar    1  UNL1        0.0154
     23 C          53.7763   95.6989   -6.1229 C.ar    1  UNL1        0.0013
     24 C          52.7552   96.2878   -5.1954 C.ar    1  UNL1        0.0001
     25 C          53.1555   96.7185   -3.8154 C.ar    1  UNL1        0.0013
     26 C          54.5768   96.5602   -3.3630 C.ar    1  UNL1        0.0154
     27 C          51.3338   96.4460   -5.6477 C.ar    1  UNL1        0.0000
     28 C          50.9962   96.3535   -7.1063 C.ar    1  UNL1        0.0000
     29 C          49.5749   96.5118   -7.5587 C.ar    1  UNL1        0.0000
     30 C          48.4910   96.7625   -6.5524 C.ar    1  UNL1        0.0000
     31 C          48.8286   96.8550   -5.0938 C.ar    1  UNL1        0.0000
     32 C          50.2501   96.6967   -4.6415 C.ar    1  UNL1        0.0000
     33 C          61.6726   95.5717    1.1821 C.3     1  UNL1        0.1183
     34 C          64.5372   94.8590    0.6467 C.3     1  UNL1        0.0323
     35 C          63.6582   93.9114    1.4078 C.ar    1  UNL1       -0.0069
     36 C          64.2114   92.6074    1.9013 C.ar    1  UNL1       -0.0015
     37 C          63.3324   91.6598    2.6625 C.ar    1  UNL1        0.0203
     38 C          61.9002   92.0161    2.9302 C.ar    1  UNL1        0.0985
     39 N          61.3469   93.3201    2.4367 N.ar    1  UNL1       -0.2471
     40 C          62.2259   94.2678    1.6755 C.ar    1  UNL1        0.0712
@<TRIPOS>BOND
     1    34    35    1
     2    35    36   ar
     3    36    37   ar
     4    37    38   ar
     5    38    39   ar
     6    39    40   ar
     7    40    33    1
     8    33     1    1
     9     1     2    1
    10     2     3    1
    11     3     4    1
    12     4     5    1
    13     5     6    1
    14     4     7    1
    15     7     8    2
    16     7     9   am
    17     9    21    1
    18    21    22   ar
    19    22    23   ar
    20    23    24   ar
    21    24    27    1
    22    27    28   ar
    23    28    29   ar
    24    29    30   ar
    25    30    31   ar
    26    31    32   ar
    27    24    25   ar
    28    25    26   ar
    29     9    10   am
    30    10    11    2
    31    10    12   am
    32    12    13    1
    33    13    14   ar
    34    14    15   ar
    35    15    16    1
    36    15    17   ar
    37    17    18   ar
    38    18    19   ar
    39    40    35   ar
    40     6     1    1
    41    26    21   ar
    42    19    13   ar
    43    12     4    1
    44    32    27   ar
    45    16    20    1
@<TRIPOS>MOLECULE
*****
 40 45 0 0 0
SMALL
GASTEIGER

@<TRIPOS>ATOM
      1 N          60.9033   93.8135    1.0182 N.3     1  UNL1       -0.2676
      2 C          61.6875   94.3071   -0.1614 C.3     1  UNL1        0.0746
      3 C          60.9723   94.8015   -1.3836 C.3     1  UNL1        0.0449
      4 C          59.4729   94.8023   -1.4264 C.3     1  UNL1        0.1391
      5 C          58.6887   94.3087   -0.2468 C.3     1  UNL1        0.0449
      6 C          59.4039   93.8143    0.9754 C.3     1  UNL1        0.0746
      7 C          57.9858   94.8627   -1.6138 C.2     1  UNL1        0.2529
      8 O          56.9529   94.4393   -0.6119 O.2     1  UNL1       -0.2724
      9 N          57.7130   95.4209   -2.9792 N.am    1  UNL1       -0.1907
     10 C          59.0315   95.7054   -3.6356 C.2     1  UNL1        0.3219
     11 O          59.2278   96.2726   -5.0101 O.2     1  UNL1       -0.2512
     12 N          60.1191   95.3231   -2.6759 N.am    1  UNL1       -0.2222
     13 C          61.5940   95.4409   -2.9224 C.ar    1  UNL1        0.1453
     14 C          62.3623   94.2659   -3.4507 C.ar    1  UNL1        0.0922
     15 C          63.8372   94.3838   -3.6971 C.ar    1  UNL1        0.2259
     16 O          64.6056   93.2089   -4.2254 O.3     1  UNL1       -0.4919
     17 N          64.5439   95.6766   -3.4152 N.ar    1  UNL1       -0.1894
     18 C          63.7755   96.8516   -2.8869 C.ar    1  UNL1        0.2027
     19 N          62.3006   96.7337   -2.6405 N.ar    1  UNL1       -0.2084
     20 H          64.1643   92.4013   -4.4015 H       1  UNL1        0.2938
     21 C          56.3595   95.6536   -3.5823 C.ar    1  UNL1        0.0622
     22 C          56.2417   96.2570   -4.9504 C.ar    1  UNL1        0.0154
     23 C          54.8881   96.4897   -5.5535 C.ar    1  UNL1        0.0013
     24 C          53.6524   96.1191   -4.7884 C.ar    1  UNL1        0.0001
     25 C          53.7702   95.5158   -3.4201 C.ar    1  UNL1        0.0013
     26 C          55.1237   95.2830   -2.8171 C.ar    1  UNL1        0.0154
     27 C          52.2988   96.3519   -5.3914 C.ar    1  UNL1        0.0000
     28 C          51.0759   96.3232   -4.5233 C.ar    1  UNL1        0.0000
     29 C          49.7224   96.5559   -5.1263 C.ar    1  UNL1        0.0000
     30 C          49.5917   96.8174   -6.5976 C.ar    1  UNL1        0.0000
     31 C          50.8146   96.8461   -7.4658 C.ar    1  UNL1        0.0000
     32 C          52.1682   96.6133   -6.8627 C.ar    1  UNL1        0.0000
     33 C          61.6185   93.3190    2.2405 C.3     1  UNL1        0.1183
     34 C          63.0617   91.2269    3.8344 C.3     1  UNL1        0.0323
     35 C          61.5999   91.4708    4.0665 C.ar    1  UNL1       -0.0069
     36 C          60.8598   90.6688    5.0955 C.ar    1  UNL1       -0.0015
     37 C          59.3981   90.9128    5.3276 C.ar    1  UNL1        0.0203
     38 C          58.6765   91.9588    4.5307 C.ar    1  UNL1        0.0985
     39 N          59.4166   92.7609    3.5016 N.ar    1  UNL1       -0.2471
     40 C          60.8784   92.5169    3.2695 C.ar    1  UNL1        0.0712
@<TRIPOS>BOND
     1    34    35    1
     2    35    36   ar
     3    36    37   ar
     4    37    38   ar
     5    38    39   ar
     6    39    40   ar
     7    40    33    1
     8    33     1    1
     9     1     2    1
    10     2     3    1
    11     3     4    1
    12     4     5    1
    13     5     6    1
    14     4     7    1
    15     7     8    2
    16     7     9   am
    17     9    21    1
    18    21    22   ar
    19    22    23   ar
    20    23    24   ar
    21    24    27    1
    22    27    28   ar
    23    28    29   ar
    24    29    30   ar
    25    30    31   ar
    26    31    32   ar
    27    24    25   ar
    28    25    26   ar
    29     9    10   am
    30    10    11    2
    31    10    12   am
    32    12    13    1
    33    13    14   ar
    34    14    15   ar
    35    15    16    1
    36    15    17   ar
    37    17    18   ar
    38    18    19   ar
    39    40    35   ar
    40     6     1    1
    41    26    21   ar
    42    19    13   ar
    43    12     4    1
    44    32    27   ar
    45    16    20    1
@<TRIPOS>MOLECULE
*****
 40 45 0 0 0
SMALL
GASTEIGER

@<TRIPOS>ATOM
      1 N          58.7746   95.2864   -2.2619 N.3     1  UNL1       -0.2676
      2 C          60.2612   95.4278   -2.1207 C.3     1  UNL1        0.0746
      3 C          60.9667   94.8017   -0.9544 C.3     1  UNL1        0.0449
      4 C          60.1855   94.0342    0.0707 C.3     1  UNL1        0.1391
      5 C          58.6989   93.8929   -0.0705 C.3     1  UNL1        0.0449
      6 C          57.9935   94.5190   -1.2368 C.3     1  UNL1        0.0746
      7 C          59.5409   93.2417    1.1691 C.2     1  UNL1        0.2529
      8 O          58.0777   92.9362    1.2940 O.2     1  UNL1       -0.2724
      9 N          60.6165   92.8084    2.1207 N.am    1  UNL1       -0.1907
     10 C          61.9259   93.3331    1.6103 C.2     1  UNL1        0.3219
     11 O          63.2662   93.1350    2.2539 O.2     1  UNL1       -0.2512
     12 N          61.6595   94.0907    0.3434 N.am    1  UNL1       -0.2222
     13 C          62.6867   94.7832   -0.5024 C.ar    1  UNL1        0.1453
     14 C          63.2509   94.0957   -1.7103 C.ar    1  UNL1        0.0922
     15 C          64.2780   94.7882   -2.5560 C.ar    1  UNL1        0.2259
     16 O          64.8423   94.1008   -3.7639 O.3     1  UNL1       -0.4919
     17 N          64.7410   96.1683   -2.1939 N.ar    1  UNL1       -0.1894
     18 C          64.1768   96.8558   -0.9860 C.ar    1  UNL1        0.2027
     19 N          63.1497   96.1633   -0.1403 N.ar    1  UNL1       -0.2084
     20 H          64.5531   93.2387   -3.9901 H       1  UNL1        0.2938
     21 C          60.4177   91.9935    3.3642 C.ar    1  UNL1        0.0622
     22 C          59.0767   91.9646    4.0355 C.ar    1  UNL1        0.0154
     23 C          58.8779   91.1496    5.2790 C.ar    1  UNL1        0.0013
     24 C          60.0201   90.3636    5.8512 C.ar    1  UNL1        0.0001
     25 C          61.3611   90.3925    5.1799 C.ar    1  UNL1        0.0013
     26 C          61.5600   91.2075    3.9364 C.ar    1  UNL1        0.0154
     27 C          59.8212   89.5487    7.0947 C.ar    1  UNL1        0.0000
     28 C          60.2903   90.0744    8.4190 C.ar    1  UNL1        0.0000
     29 C          60.0915   89.2595    9.6625 C.ar    1  UNL1        0.0000
     30 C          59.4235   87.9188    9.5818 C.ar    1  UNL1        0.0000
     31 C          58.9544   87.3931    8.2576 C.ar    1  UNL1        0.0000
     32 C          59.1533   88.2081    7.0140 C.ar    1  UNL1        0.0000
     33 C          58.0691   95.9125   -3.4283 C.3     1  UNL1        0.1183
     34 C          55.1645   95.1850   -3.6138 C.3     1  UNL1        0.0323
     35 C          56.1291   94.6912   -4.6510 C.ar    1  UNL1       -0.0069
     36 C          55.6415   93.8337   -5.7809 C.ar    1  UNL1       -0.0015
     37 C          56.6061   93.3399   -6.8181 C.ar    1  UNL1        0.0203
     38 C          58.0583   93.7036   -6.7253 C.ar    1  UNL1        0.0985
     39 N          58.5460   94.5612   -5.5954 N.ar    1  UNL1       -0.2471
     40 C          57.5814   95.0550   -4.5582 C.ar    1  UNL1        0.0712
@<TRIPOS>BOND
     1    34    35    1
     2    35    36   ar
     3    36    37   ar
     4    37    38   ar
     5    38    39   ar
     6    39    40   ar
     7    40    33    1
     8    33     1    1
     9     1     2    1
    10     2     3    1
    11     3     4    1
    12     4     5    1
    13     5     6    1
    14     4     7    1
    15     7     8    2
    16     7     9   am
    17     9    21    1
    18    21    22   ar
    19    22    23   ar
    20    23    24   ar
    21    24    27    1
    22    27    28   ar
    23    28    29   ar
    24    29    30   ar
    25    30    31   ar
    26    31    32   ar
    27    24    25   ar
    28    25    26   ar
    29     9    10   am
    30    10    11    2
    31    10    12   am
    32    12    13    1
    33    13    14   ar
    34    14    15   ar
    35    15    16    1
    36    15    17   ar
    37    17    18   ar
    38    18    19   ar
    39    40    35   ar
    40     6     1    1
    41    26    21   ar
    42    19    13   ar
    43    12     4    1
    44    32    27   ar
    45    16    20    1
@<TRIPOS>MOLECULE
*****
 40 45 0 0 0
SMALL
GASTEIGER

@<TRIPOS>ATOM
      1 N          58.8692   95.5693   -2.1226 N.3     1  UNL1       -0.2676
      2 C          60.3631   95.6380   -2.0067 C.3     1  UNL1        0.0746
      3 C          61.0603   94.9437   -0.8745 C.3     1  UNL1        0.0449
      4 C          60.2635   94.1806    0.1418 C.3     1  UNL1        0.1391
      5 C          58.7696   94.1119    0.0259 C.3     1  UNL1        0.0449
      6 C          58.0725   94.8062   -1.1063 C.3     1  UNL1        0.0746
      7 C          59.6032   93.3840    1.2279 C.2     1  UNL1        0.2529
      8 O          58.1300   93.1418    1.3724 O.2     1  UNL1       -0.2724
      9 N          60.6750   92.8720    2.1441 N.am    1  UNL1       -0.1907
     10 C          61.9976   93.3523    1.6242 C.2     1  UNL1        0.3219
     11 O          63.3389   93.0728    2.2346 O.2     1  UNL1       -0.2512
     12 N          61.7433   94.1610    0.3868 N.am    1  UNL1       -0.2222
     13 C          62.7856   94.8323   -0.4574 C.ar    1  UNL1        0.1453
     14 C          63.2982   94.1565   -1.6946 C.ar    1  UNL1        0.0922
     15 C          64.3405   94.8279   -2.5388 C.ar    1  UNL1        0.2259
     16 O          64.8531   94.1520   -3.7759 O.3     1  UNL1       -0.4919
     17 N          64.8703   96.1751   -2.1460 N.ar    1  UNL1       -0.1894
     18 C          64.3577   96.8510   -0.9088 C.ar    1  UNL1        0.2027
     19 N          63.3154   96.1796   -0.0646 N.ar    1  UNL1       -0.2084
     20 H          64.5222   93.3105   -4.0213 H       1  UNL1        0.2938
     21 C          60.4616   92.0280    3.3656 C.ar    1  UNL1        0.0622
     22 C          61.5787   91.1783    3.8946 C.ar    1  UNL1        0.0154
     23 C          61.3654   90.3343    5.1161 C.ar    1  UNL1        0.0013
     24 C          60.0349   90.3400    5.8086 C.ar    1  UNL1        0.0001
     25 C          58.9177   91.1897    5.2796 C.ar    1  UNL1        0.0013
     26 C          59.1311   92.0337    4.0581 C.ar    1  UNL1        0.0154
     27 C          59.8215   89.4960    7.0301 C.ar    1  UNL1        0.0000
     28 C          59.1635   88.1535    6.9086 C.ar    1  UNL1        0.0000
     29 C          58.9501   87.3095    8.1301 C.ar    1  UNL1        0.0000
     30 C          59.3947   87.8080    9.4733 C.ar    1  UNL1        0.0000
     31 C          60.0528   89.1505    9.5948 C.ar    1  UNL1        0.0000
     32 C          60.2661   89.9945    8.3732 C.ar    1  UNL1        0.0000
     33 C          58.1721   96.2636   -3.2548 C.3     1  UNL1        0.1183
     34 C          56.7845   95.0892   -5.6414 C.3     1  UNL1        0.0323
     35 C          55.9800   95.6759   -4.5195 C.ar    1  UNL1       -0.0069
     36 C          54.4817   95.6753   -4.5909 C.ar    1  UNL1       -0.0015
     37 C          53.6772   96.2619   -3.4690 C.ar    1  UNL1        0.0203
     38 C          54.3709   96.8491   -2.2758 C.ar    1  UNL1        0.0985
     39 N          55.8693   96.8497   -2.2043 N.ar    1  UNL1       -0.2471
     40 C          56.6738   96.2631   -3.3262 C.ar    1  UNL1        0.0712
@<TRIPOS>BOND
     1    34    35    1
     2    35    36   ar
     3    36    37   ar
     4    37    38   ar
     5    38    39   ar
     6    39    40   ar
     7    40    33    1
     8    33     1    1
     9     1     2    1
    10     2     3    1
    11     3     4    1
    12     4     5    1
    13     5     6    1
    14     4     7    1
    15     7     8    2
    16     7     9   am
    17     9    21    1
    18    21    22   ar
    19    22    23   ar
    20    23    24   ar
    21    24    27    1
    22    27    28   ar
    23    28    29   ar
    24    29    30   ar
    25    30    31   ar
    26    31    32   ar
    27    24    25   ar
    28    25    26   ar
    29     9    10   am
    30    10    11    2
    31    10    12   am
    32    12    13    1
    33    13    14   ar
    34    14    15   ar
    35    15    16    1
    36    15    17   ar
    37    17    18   ar
    38    18    19   ar
    39    40    35   ar
    40     6     1    1
    41    26    21   ar
    42    19    13   ar
    43    12     4    1
    44    32    27   ar
    45    16    20    1
@<TRIPOS>MOLECULE
*****
 40 45 0 0 0
SMALL
GASTEIGER

@<TRIPOS>ATOM
      1 N          64.1509   92.4407   11.0571 N.3     1  UNL1       -0.2676
      2 C          64.7080   92.4450   12.4498 C.3     1  UNL1        0.0746
      3 C          64.6858   91.1894   13.2702 C.3     1  UNL1        0.0449
      4 C          64.1067   89.9296   12.6979 C.3     1  UNL1        0.1391
      5 C          63.5497   89.9254   11.3052 C.3     1  UNL1        0.0449
      6 C          63.5718   91.1809   10.4848 C.3     1  UNL1        0.0746
      7 C          63.5630   88.6012   12.2623 C.2     1  UNL1        0.2529
      8 O          62.9460   88.2951   10.9298 O.2     1  UNL1       -0.2724
      9 N          63.7447   87.6326   13.3932 N.am    1  UNL1       -0.1907
     10 C          64.4007   88.3624   14.5277 C.2     1  UNL1        0.3219
     11 O          64.7684   87.7757   15.8583 O.2     1  UNL1       -0.2512
     12 N          64.6244   89.7820   14.0980 N.am    1  UNL1       -0.2222
     13 C          65.2551   90.8641   14.9234 C.ar    1  UNL1        0.1453
     14 C          66.7112   91.1829   14.7559 C.ar    1  UNL1        0.0922
     15 C          67.3418   92.2650   15.5813 C.ar    1  UNL1        0.2259
     16 O          68.7979   92.5839   15.4138 O.3     1  UNL1       -0.4919
     17 N          66.5163   93.0284   16.5744 N.ar    1  UNL1       -0.1894
     18 C          65.0602   92.7095   16.7419 C.ar    1  UNL1        0.2027
     19 N          64.4296   91.6274   15.9164 N.ar    1  UNL1       -0.2084
     20 H          69.3136   92.1071   14.7936 H       1  UNL1        0.2938
     21 C          63.3412   86.1879   13.3901 C.ar    1  UNL1        0.0622
     22 C          62.8453   85.5504   12.1262 C.ar    1  UNL1        0.0154
     23 C          62.4419   84.1057   12.1231 C.ar    1  UNL1        0.0013
     24 C          62.5343   83.2985   13.3839 C.ar    1  UNL1        0.0001
     25 C          63.0303   83.9360   14.6479 C.ar    1  UNL1        0.0013
     26 C          63.4337   85.3807   14.6510 C.ar    1  UNL1        0.0154
     27 C          62.1309   81.8538   13.3808 C.ar    1  UNL1        0.0000
     28 C          60.9248   81.4102   14.1545 C.ar    1  UNL1        0.0000
     29 C          60.5213   79.9655   14.1514 C.ar    1  UNL1        0.0000
     30 C          61.3240   78.9643   13.3745 C.ar    1  UNL1        0.0000
     31 C          62.5301   79.4078   12.6009 C.ar    1  UNL1        0.0000
     32 C          62.9336   80.8526   12.6040 C.ar    1  UNL1        0.0000
     33 C          64.1730   93.6963   10.2366 C.3     1  UNL1        0.1183
     34 C          64.4044   96.6758    9.9738 C.3     1  UNL1        0.0323
     35 C          65.5986   95.8052    9.7167 C.ar    1  UNL1       -0.0069
     36 C          66.9084   96.4244    9.3283 C.ar    1  UNL1       -0.0015
     37 C          68.1026   95.5538    9.0713 C.ar    1  UNL1        0.0203
     38 C          67.9870   94.0641    9.2027 C.ar    1  UNL1        0.0985
     39 N          66.6771   93.4449    9.5912 N.ar    1  UNL1       -0.2471
     40 C          65.4829   94.3154    9.8482 C.ar    1  UNL1        0.0712
@<TRIPOS>BOND
     1    34    35    1
     2    35    36   ar
     3    36    37   ar
     4    37    38   ar
     5    38    39   ar
     6    39    40   ar
     7    40    33    1
     8    33     1    1
     9     1     2    1
    10     2     3    1
    11     3     4    1
    12     4     5    1
    13     5     6    1
    14     4     7    1
    15     7     8    2
    16     7     9   am
    17     9    21    1
    18    21    22   ar
    19    22    23   ar
    20    23    24   ar
    21    24    27    1
    22    27    28   ar
    23    28    29   ar
    24    29    30   ar
    25    30    31   ar
    26    31    32   ar
    27    24    25   ar
    28    25    26   ar
    29     9    10   am
    30    10    11    2
    31    10    12   am
    32    12    13    1
    33    13    14   ar
    34    14    15   ar
    35    15    16    1
    36    15    17   ar
    37    17    18   ar
    38    18    19   ar
    39    40    35   ar
    40     6     1    1
    41    26    21   ar
    42    19    13   ar
    43    12     4    1
    44    32    27   ar
    45    16    20    1
@<TRIPOS>MOLECULE
*****
 40 45 0 0 0
SMALL
GASTEIGER

@<TRIPOS>ATOM
      1 N          64.0288   92.3287   10.9380 N.3     1  UNL1       -0.2676
      2 C          64.6166   92.3483   12.3178 C.3     1  UNL1        0.0746
      3 C          64.6185   91.1003   13.1500 C.3     1  UNL1        0.0449
      4 C          64.0326   89.8328   12.6023 C.3     1  UNL1        0.1391
      5 C          63.4448   89.8132   11.2224 C.3     1  UNL1        0.0449
      6 C          63.4429   91.0611   10.3903 C.3     1  UNL1        0.0746
      7 C          63.4855   88.4980   12.1910 C.2     1  UNL1        0.2529
      8 O          62.8404   88.1769   10.8755 O.2     1  UNL1       -0.2724
      9 N          63.6967   87.5406   13.3264 N.am    1  UNL1       -0.1907
     10 C          64.3744   88.2838   14.4394 C.2     1  UNL1        0.3219
     11 O          64.7743   87.7110   15.7667 O.2     1  UNL1       -0.2512
     12 N          64.5820   89.7004   13.9918 N.am    1  UNL1       -0.2222
     13 C          65.2259   90.7928   14.7930 C.ar    1  UNL1        0.1453
     14 C          64.4257   91.5449   15.8147 C.ar    1  UNL1        0.0922
     15 C          65.0697   92.6374   16.6159 C.ar    1  UNL1        0.2259
     16 O          64.2695   93.3895   17.6376 O.3     1  UNL1       -0.4919
     17 N          66.5139   92.9777   16.3954 N.ar    1  UNL1       -0.1894
     18 C          67.3140   92.2255   15.3737 C.ar    1  UNL1        0.2027
     19 N          66.6701   91.1331   14.5725 N.ar    1  UNL1       -0.2084
     20 H          63.3674   93.1770   17.7754 H       1  UNL1        0.2938
     21 C          63.3000   86.0942   13.3456 C.ar    1  UNL1        0.0622
     22 C          63.3606   85.3168   14.6268 C.ar    1  UNL1        0.0154
     23 C          62.9638   83.8703   14.6459 C.ar    1  UNL1        0.0013
     24 C          62.5064   83.2014   13.3838 C.ar    1  UNL1        0.0001
     25 C          62.4458   83.9789   12.1024 C.ar    1  UNL1        0.0013
     26 C          62.8426   85.4253   12.0833 C.ar    1  UNL1        0.0154
     27 C          62.1096   81.7549   13.4029 C.ar    1  UNL1        0.0000
     28 C          62.9294   80.7425   12.6592 C.ar    1  UNL1        0.0000
     29 C          62.5326   79.2960   12.6783 C.ar    1  UNL1        0.0000
     30 C          61.3160   78.8620   13.4411 C.ar    1  UNL1        0.0000
     31 C          60.4963   79.8745   14.1847 C.ar    1  UNL1        0.0000
     32 C          60.8931   81.3210   14.1656 C.ar    1  UNL1        0.0000
     33 C          64.0269   93.5767   10.1057 C.3     1  UNL1        0.1183
     34 C          66.7658   92.4182    9.7104 C.3     1  UNL1        0.0323
     35 C          66.5971   93.8964    9.9015 C.ar    1  UNL1       -0.0069
     36 C          67.7979   94.7953    9.8949 C.ar    1  UNL1       -0.0015
     37 C          67.6292   96.2735   10.0860 C.ar    1  UNL1        0.0203
     38 C          66.2598   96.8528   10.2837 C.ar    1  UNL1        0.0985
     39 N          65.0590   95.9538   10.2903 N.ar    1  UNL1       -0.2471
     40 C          65.2276   94.4756   10.0992 C.ar    1  UNL1        0.0712
@<TRIPOS>BOND
     1    34    35    1
     2    35    36   ar
     3    36    37   ar
     4    37    38   ar
     5    38    39   ar
     6    39    40   ar
     7    40    33    1
     8    33     1    1
     9     1     2    1
    10     2     3    1
    11     3     4    1
    12     4     5    1
    13     5     6    1
    14     4     7    1
    15     7     8    2
    16     7     9   am
    17     9    21    1
    18    21    22   ar
    19    22    23   ar
    20    23    24   ar
    21    24    27    1
    22    27    28   ar
    23    28    29   ar
    24    29    30   ar
    25    30    31   ar
    26    31    32   ar
    27    24    25   ar
    28    25    26   ar
    29     9    10   am
    30    10    11    2
    31    10    12   am
    32    12    13    1
    33    13    14   ar
    34    14    15   ar
    35    15    16    1
    36    15    17   ar
    37    17    18   ar
    38    18    19   ar
    39    40    35   ar
    40     6     1    1
    41    26    21   ar
    42    19    13   ar
    43    12     4    1
    44    32    27   ar
    45    16    20    1
@<TRIPOS>MOLECULE
*****
 40 45 0 0 0
SMALL
GASTEIGER

@<TRIPOS>ATOM
      1 N          59.0395   95.6458   -2.3889 N.3     1  UNL1       -0.2676
      2 C          60.5315   95.4922   -2.3999 C.3     1  UNL1        0.0746
      3 C          61.2150   94.7293   -1.3042 C.3     1  UNL1        0.0449
      4 C          60.4065   94.1199   -0.1974 C.3     1  UNL1        0.1391
      5 C          58.9144   94.2735   -0.1864 C.3     1  UNL1        0.0449
      6 C          58.2309   95.0364   -1.2822 C.3     1  UNL1        0.0746
      7 C          59.7336   93.4585    0.9687 C.2     1  UNL1        0.2529
      8 O          58.2591   93.4440    1.2439 O.2     1  UNL1       -0.2724
      9 N          60.7942   92.8141    1.8115 N.am    1  UNL1       -0.1907
     10 C          62.1225   93.0773    1.1661 C.2     1  UNL1        0.3219
     11 O          63.4561   92.6147    1.6732 O.2     1  UNL1       -0.2512
     12 N          61.8829   93.8843   -0.0754 N.am    1  UNL1       -0.2222
     13 C          62.9349   94.3703   -1.0278 C.ar    1  UNL1        0.1453
     14 C          63.9934   95.3217   -0.5542 C.ar    1  UNL1        0.0922
     15 C          65.0454   95.8077   -1.5067 C.ar    1  UNL1        0.2259
     16 O          66.1039   96.7592   -1.0331 O.3     1  UNL1       -0.4919
     17 N          65.0388   95.3424   -2.9327 N.ar    1  UNL1       -0.1894
     18 C          63.9803   94.3910   -3.4062 C.ar    1  UNL1        0.2027
     19 N          62.9283   93.9049   -2.4538 N.ar    1  UNL1       -0.2084
     20 H          66.1080   97.0499   -0.1424 H       1  UNL1        0.2938
     21 C          60.5664   92.0422    3.0772 C.ar    1  UNL1        0.0622
     22 C          61.6916   91.2666    3.6955 C.ar    1  UNL1        0.0154
     23 C          61.4638   90.4947    4.9612 C.ar    1  UNL1        0.0013
     24 C          60.1109   90.4983    5.6088 C.ar    1  UNL1        0.0001
     25 C          58.9856   91.2739    4.9905 C.ar    1  UNL1        0.0013
     26 C          59.2134   92.0459    3.7248 C.ar    1  UNL1        0.0154
     27 C          59.8831   89.7264    6.8746 C.ar    1  UNL1        0.0000
     28 C          59.0952   88.4503    6.8434 C.ar    1  UNL1        0.0000
     29 C          58.8674   87.6784    8.1092 C.ar    1  UNL1        0.0000
     30 C          59.4276   88.1825    9.4062 C.ar    1  UNL1        0.0000
     31 C          60.2155   89.4585    9.4374 C.ar    1  UNL1        0.0000
     32 C          60.4433   90.2304    8.1715 C.ar    1  UNL1        0.0000
     33 C          58.3559   96.4088   -3.4847 C.3     1  UNL1        0.1183
     34 C          59.9048   96.8472   -6.0163 C.3     1  UNL1        0.0323
     35 C          58.7213   95.9256   -6.0111 C.ar    1  UNL1       -0.0069
     36 C          58.3123   95.2232   -7.2718 C.ar    1  UNL1       -0.0015
     37 C          57.1288   94.3016   -7.2667 C.ar    1  UNL1        0.0203
     38 C          56.3543   94.0824   -6.0009 C.ar    1  UNL1        0.0985
     39 N          56.7634   94.7848   -4.7402 N.ar    1  UNL1       -0.2471
     40 C          57.9469   95.7064   -4.7453 C.ar    1  UNL1        0.0712
@<TRIPOS>BOND
     1    34    35    1
     2    35    36   ar
     3    36    37   ar
     4    37    38   ar
     5    38    39   ar
     6    39    40   ar
     7    40    33    1
     8    33     1    1
     9     1     2    1
    10     2     3    1
    11     3     4    1
    12     4     5    1
    13     5     6    1
    14     4     7    1
    15     7     8    2
    16     7     9   am
    17     9    21    1
    18    21    22   ar
    19    22    23   ar
    20    23    24   ar
    21    24    27    1
    22    27    28   ar
    23    28    29   ar
    24    29    30   ar
    25    30    31   ar
    26    31    32   ar
    27    24    25   ar
    28    25    26   ar
    29     9    10   am
    30    10    11    2
    31    10    12   am
    32    12    13    1
    33    13    14   ar
    34    14    15   ar
    35    15    16    1
    36    15    17   ar
    37    17    18   ar
    38    18    19   ar
    39    40    35   ar
    40     6     1    1
    41    26    21   ar
    42    19    13   ar
    43    12     4    1
    44    32    27   ar
    45    16    20    1
