@<TRIPOS>MOLECULE
*****
 41 47 0 0 0
SMALL
GASTEIGER

@<TRIPOS>ATOM
      1 N          60.9175   88.5628    8.7548 N.pl3   1  UNL1       -0.2881
      2 C          61.7989   89.2298    9.7688 C.3     1  UNL1        0.0930
      3 C          62.3779   88.4320   10.8995 C.3     1  UNL1        0.0259
      4 C          62.0756   86.9675   11.0162 C.3     1  UNL1        0.0256
      5 C          62.9683   87.2736   12.1821 C.2     1  UNL1       -0.0304
      6 C          62.8945   85.8394   12.6152 C.2     1  UNL1       -0.0219
      7 C          62.0018   85.5333   11.4494 C.3     1  UNL1        0.0303
      8 C          61.1942   86.3005   10.0021 C.3     1  UNL1        0.0259
      9 C          60.6152   87.0983    8.8715 C.3     1  UNL1        0.0930
     10 C          59.1348   92.1769    3.7186 C.ar    1  UNL1        0.0168
     11 C          57.7543   91.7619    4.1328 C.ar    1  UNL1        0.0324
     12 C          57.5654   90.8636    5.3192 C.ar    1  UNL1        0.1582
     13 F          56.1847   90.4487    5.7334 F       1  UNL1       -0.2026
     14 C          58.7571   90.3804    6.0913 C.ar    1  UNL1        0.1166
     15 N          58.8811   89.4935    7.2946 N.ar    1  UNL1       -0.2218
     16 C          60.3385   89.3605    7.6241 C.ar    1  UNL1        0.1631
     17 S          61.1151   90.1650    6.6243 S.2     1  UNL1       -0.0515
     18 C          60.1378   90.7954    5.6770 C.ar    1  UNL1        0.0520
     19 C          60.3266   91.6937    4.4906 C.ar    1  UNL1        0.0093
     20 O          58.8698   92.6293    1.1739 O.co2   1  UNL1       -0.5446
     21 C          59.3238   93.0752    2.5322 C.2     1  UNL1        0.0730
     22 O          59.9667   94.4195    2.7042 O.co2   1  UNL1       -0.5446
     23 C          63.4735   85.0418   13.7460 C.ar    1  UNL1        0.0496
     24 C          63.8435   83.5888   13.7011 C.ar    1  UNL1        0.1251
     25 N          64.3829   83.2061   15.0474 N.ar    1  UNL1       -0.0773
     26 O          64.3463   84.4226   15.9243 O.2     1  UNL1       -0.3578
     27 C          63.7843   85.5571   15.1200 C.ar    1  UNL1        0.1535
     28 C          63.6994   82.6785   12.5177 C.ar    1  UNL1        0.0551
     29 C          64.2502   83.0889   11.1842 C.ar    1  UNL1        0.0046
     30 C          64.1061   82.1784   10.0008 C.ar    1  UNL1        0.0003
     31 C          63.4111   80.8576   10.1510 C.ar    1  UNL1        0.0031
     32 C          62.8604   80.4472   11.4844 C.ar    1  UNL1        0.0372
     33 C          63.0045   81.3576   12.6678 C.ar    1  UNL1        0.1483
     34 O          62.4537   80.9472   14.0013 O.3     1  UNL1       -0.4044
     35 C          60.9712   80.8249   14.1949 C.3     1  UNL1        0.5753
     36 F          59.4888   80.7026   14.3885 F       1  UNL1       -0.1328
     37 F          60.8996   82.2769   14.5642 F       1  UNL1       -0.1328
     38 F          61.0428   79.3728   13.8256 F       1  UNL1       -0.1328
     39 C          63.5705   86.9605   15.6045 C.3     1  UNL1        0.0602
     40 C          63.7314   88.4395   15.4133 C.3     1  UNL1        0.0081
     41 C          63.0393   87.9122   16.6351 C.3     1  UNL1        0.0081
@<TRIPOS>UNITY_ATOM_ATTR
20 1
charge -1
@<TRIPOS>BOND
     1    20    21   ar
     2    21    22   ar
     3    21    10    1
     4    10    11   ar
     5    11    12   ar
     6    12    13    1
     7    12    14   ar
     8    14    15   ar
     9    15    16   ar
    10    16     1    1
    11     1     2    1
    12     2     3    1
    13     3     4    1
    14     4     5    1
    15     5     6    2
    16     6    23    1
    17    23    24   ar
    18    24    28    1
    19    28    29   ar
    20    29    30   ar
    21    30    31   ar
    22    31    32   ar
    23    32    33   ar
    24    33    34    1
    25    34    35    1
    26    35    36    1
    27    35    37    1
    28    35    38    1
    29    24    25   ar
    30    25    26   ar
    31    26    27   ar
    32    27    39    1
    33    39    40    1
    34    40    41    1
    35     6     7    1
    36     4     8    1
    37     8     9    1
    38    16    17   ar
    39    17    18   ar
    40    18    19   ar
    41    19    10   ar
    42    18    14   ar
    43     9     1    1
    44     7     4    1
    45    27    23   ar
    46    41    39    1
    47    33    28   ar
@<TRIPOS>MOLECULE
*****
 41 47 0 0 0
SMALL
GASTEIGER

@<TRIPOS>ATOM
      1 N          60.8328   89.0424    8.4034 N.pl3   1  UNL1       -0.2881
      2 C          60.6313   87.5633    8.5505 C.3     1  UNL1        0.0930
      3 C          61.2272   86.8379    9.7205 C.3     1  UNL1        0.0259
      4 C          62.0245   87.5916   10.7433 C.3     1  UNL1        0.0256
      5 C          62.0380   86.1671   11.2131 C.2     1  UNL1       -0.0304
      6 C          62.8671   86.5656   12.3979 C.2     1  UNL1       -0.0219
      7 C          62.8536   87.9901   11.9281 C.3     1  UNL1        0.0303
      8 C          62.2260   89.0706   10.5962 C.3     1  UNL1        0.0259
      9 C          61.6301   89.7960    9.4262 C.3     1  UNL1        0.0930
     10 C          58.9762   92.3130    3.1632 C.ar    1  UNL1        0.0168
     11 C          57.6001   91.9683    3.6503 C.ar    1  UNL1        0.0324
     12 C          57.4280   91.1677    4.9071 C.ar    1  UNL1        0.1582
     13 F          56.0517   90.8230    5.3942 F       1  UNL1       -0.2026
     14 C          58.6320   90.7118    5.6767 C.ar    1  UNL1        0.1166
     15 N          58.7734   89.9153    6.9399 N.ar    1  UNL1       -0.2218
     16 C          60.2370   89.7678    7.2335 C.ar    1  UNL1        0.1631
     17 S          61.0001   90.4731    6.1517 S.2     1  UNL1       -0.0515
     18 C          60.0082   91.0565    5.1896 C.ar    1  UNL1        0.0520
     19 C          60.1803   91.8571    3.9328 C.ar    1  UNL1        0.0093
     20 O          58.7122   92.5445    0.5890 O.co2   1  UNL1       -0.5446
     21 C          59.1484   93.1136    1.9064 C.2     1  UNL1        0.0730
     22 O          59.7569   94.4833    1.9672 O.co2   1  UNL1       -0.5446
     23 C          63.4630   85.8402   13.5678 C.ar    1  UNL1        0.0496
     24 C          64.0032   86.4734   14.8157 C.ar    1  UNL1        0.1251
     25 N          64.4973   85.3788   15.7144 N.ar    1  UNL1       -0.0773
     26 O          64.2625   84.0691   15.0219 O.2     1  UNL1       -0.3578
     27 C          63.6232   84.3543   13.6952 C.ar    1  UNL1        0.1535
     28 C          64.0423   87.9432   15.1127 C.ar    1  UNL1        0.0551
     29 C          65.0083   88.8301   14.3845 C.ar    1  UNL1        0.0046
     30 C          65.0474   90.2999   14.6816 C.ar    1  UNL1        0.0003
     31 C          64.1206   90.8827   15.7069 C.ar    1  UNL1        0.0031
     32 C          63.1546   89.9959   16.4351 C.ar    1  UNL1        0.0372
     33 C          63.1155   88.5261   16.1381 C.ar    1  UNL1        0.1483
     34 O          62.1495   87.6392   16.8663 O.3     1  UNL1       -0.4044
     35 C          62.5966   86.8817   18.0815 C.3     1  UNL1        0.5753
     36 F          63.0436   86.1244   19.2966 F       1  UNL1       -0.1328
     37 F          63.1441   88.1484   18.6695 F       1  UNL1       -0.1328
     38 F          62.0491   85.6151   17.4934 F       1  UNL1       -0.1328
     39 C          63.2158   83.3328   12.6751 C.3     1  UNL1        0.0602
     40 C          62.4192   82.1189   12.2987 C.3     1  UNL1        0.0081
     41 C          63.3067   82.7776   11.2846 C.3     1  UNL1        0.0081
@<TRIPOS>UNITY_ATOM_ATTR
20 1
charge -1
@<TRIPOS>BOND
     1    20    21   ar
     2    21    22   ar
     3    21    10    1
     4    10    11   ar
     5    11    12   ar
     6    12    13    1
     7    12    14   ar
     8    14    15   ar
     9    15    16   ar
    10    16     1    1
    11     1     2    1
    12     2     3    1
    13     3     4    1
    14     4     5    1
    15     5     6    2
    16     6    23    1
    17    23    24   ar
    18    24    28    1
    19    28    29   ar
    20    29    30   ar
    21    30    31   ar
    22    31    32   ar
    23    32    33   ar
    24    33    34    1
    25    34    35    1
    26    35    36    1
    27    35    37    1
    28    35    38    1
    29    24    25   ar
    30    25    26   ar
    31    26    27   ar
    32    27    39    1
    33    39    40    1
    34    40    41    1
    35     6     7    1
    36     4     8    1
    37     8     9    1
    38    16    17   ar
    39    17    18   ar
    40    18    19   ar
    41    19    10   ar
    42    18    14   ar
    43     9     1    1
    44     7     4    1
    45    27    23   ar
    46    41    39    1
    47    33    28   ar
@<TRIPOS>MOLECULE
*****
 41 47 0 0 0
SMALL
GASTEIGER

@<TRIPOS>ATOM
      1 N          60.6890   87.7341    8.8223 N.pl3   1  UNL1       -0.2881
      2 C          61.4682   86.5212    8.4080 C.3     1  UNL1        0.0930
      3 C          61.9825   85.5693    9.4471 C.3     1  UNL1        0.0259
      4 C          61.7178   85.8305   10.9002 C.3     1  UNL1        0.0256
      5 C          62.5077   84.5556   10.8725 C.2     1  UNL1       -0.0304
      6 C          62.4453   84.4844   12.3695 C.2     1  UNL1       -0.0219
      7 C          61.6554   85.7593   12.3972 C.3     1  UNL1        0.0303
      8 C          60.9387   87.0435   11.3145 C.3     1  UNL1        0.0259
      9 C          60.4243   87.9953   10.2754 C.3     1  UNL1        0.0930
     10 C          59.1965   91.9853    4.2067 C.ar    1  UNL1        0.0168
     11 C          57.7879   91.6133    4.5633 C.ar    1  UNL1        0.0324
     12 C          57.5290   90.6030    5.6414 C.ar    1  UNL1        0.1582
     13 F          56.1202   90.2310    5.9980 F       1  UNL1       -0.2026
     14 C          58.6788   89.9647    6.3628 C.ar    1  UNL1        0.1166
     15 N          58.7326   88.9445    7.4611 N.ar    1  UNL1       -0.2218
     16 C          60.1746   88.6860    7.7833 C.ar    1  UNL1        0.1631
     17 S          61.0120   89.5464    6.8841 S.2     1  UNL1       -0.0515
     18 C          60.0875   90.3367    6.0062 C.ar    1  UNL1        0.0520
     19 C          60.3464   91.3470    4.9282 C.ar    1  UNL1        0.0093
     20 O          59.9808   94.3547    3.4849 O.co2   1  UNL1       -0.5446
     21 C          59.4555   92.9957    3.1286 C.2     1  UNL1        0.0730
     22 O          59.1891   92.6468    1.6943 O.co2   1  UNL1       -0.5446
     23 C          62.9596   83.5326   13.4085 C.ar    1  UNL1        0.0496
     24 C          63.2671   83.8692   14.8375 C.ar    1  UNL1        0.1251
     25 N          63.7544   82.6217   15.5131 N.ar    1  UNL1       -0.0773
     26 O          63.7480   81.5141   14.5015 O.2     1  UNL1       -0.3578
     27 C          63.2569   82.0771   13.2008 C.ar    1  UNL1        0.1535
     28 C          63.1142   85.2167   15.4785 C.ar    1  UNL1        0.0551
     29 C          62.0397   85.4437   16.5002 C.ar    1  UNL1        0.0046
     30 C          61.8868   86.7913   17.1412 C.ar    1  UNL1        0.0003
     31 C          62.8085   87.9118   16.7603 C.ar    1  UNL1        0.0031
     32 C          63.8829   87.6849   15.7386 C.ar    1  UNL1        0.0372
     33 C          64.0358   86.3374   15.0976 C.ar    1  UNL1        0.1483
     34 O          65.1103   86.1103   14.0759 O.3     1  UNL1       -0.4044
     35 C          66.2762   85.2232   14.3981 C.3     1  UNL1        0.5753
     36 F          67.4421   84.3362   14.7204 F       1  UNL1       -0.1328
     37 F          65.7807   84.2121   13.4072 F       1  UNL1       -0.1328
     38 F          66.7717   86.2344   15.3891 F       1  UNL1       -0.1328
     39 C          63.0919   81.3178   11.9177 C.3     1  UNL1        0.0602
     40 C          63.1587   81.2679   10.4201 C.3     1  UNL1        0.0081
     41 C          62.7392   80.0527   11.1931 C.3     1  UNL1        0.0081
@<TRIPOS>UNITY_ATOM_ATTR
20 1
charge -1
@<TRIPOS>BOND
     1    20    21   ar
     2    21    22   ar
     3    21    10    1
     4    10    11   ar
     5    11    12   ar
     6    12    13    1
     7    12    14   ar
     8    14    15   ar
     9    15    16   ar
    10    16     1    1
    11     1     2    1
    12     2     3    1
    13     3     4    1
    14     4     5    1
    15     5     6    2
    16     6    23    1
    17    23    24   ar
    18    24    28    1
    19    28    29   ar
    20    29    30   ar
    21    30    31   ar
    22    31    32   ar
    23    32    33   ar
    24    33    34    1
    25    34    35    1
    26    35    36    1
    27    35    37    1
    28    35    38    1
    29    24    25   ar
    30    25    26   ar
    31    26    27   ar
    32    27    39    1
    33    39    40    1
    34    40    41    1
    35     6     7    1
    36     4     8    1
    37     8     9    1
    38    16    17   ar
    39    17    18   ar
    40    18    19   ar
    41    19    10   ar
    42    18    14   ar
    43     9     1    1
    44     7     4    1
    45    27    23   ar
    46    41    39    1
    47    33    28   ar
