@<TRIPOS>MOLECULE
*****
 24 28 0 0 0
SMALL
GASTEIGER

@<TRIPOS>ATOM
      1 O          61.6833   85.8246   13.2925 O.3     1  UNL1       -0.3799
      2 C          62.3751   84.9639   12.2773 C.3     1  UNL1        0.1360
      3 C          62.8802   83.6057   12.6648 C.ar    1  UNL1        0.0195
      4 C          62.6934   83.1082   14.0675 C.ar    1  UNL1        0.0966
      5 N          63.1985   81.7500   14.4550 N.ar    1  UNL1       -0.2426
      6 C          63.8903   80.8894   13.4399 C.ar    1  UNL1        0.0985
      7 C          64.0771   81.3868   12.0372 C.ar    1  UNL1        0.0162
      8 C          63.5720   82.7450   11.6496 C.ar    1  UNL1       -0.0209
      9 C          63.7587   83.2425   10.2470 C.3     1  UNL1        0.0264
     10 C          63.2536   84.6008    9.8594 C.3     1  UNL1        0.0096
     11 C          62.5618   85.4614   10.8745 C.3     1  UNL1        0.0565
     12 H          61.6462   85.3569   14.1415 H       1  UNL1        0.2108
     13 C          62.0567   86.8197   10.4870 C.3     1  UNL1        0.1121
     14 C          61.0710   87.1154    9.3957 C.ar    1  UNL1       -0.0002
     15 C          60.3432   86.2254    8.4323 C.ar    1  UNL1       -0.0024
     16 C          59.3982   86.8191    7.4302 C.ar    1  UNL1       -0.0003
     17 C          59.1809   88.3028    7.3914 C.ar    1  UNL1        0.0000
     18 C          59.9087   89.1928    8.3548 C.ar    1  UNL1        0.0012
     19 C          60.8537   88.5991    9.3570 C.ar    1  UNL1        0.0152
     20 C          61.7052   89.2202   10.4244 C.ar    1  UNL1        0.0804
     21 C          62.0971   90.5212   11.0601 C.ar    1  UNL1        0.1177
     22 N          63.0828   90.2253   12.1514 N.ar    1  UNL1       -0.2223
     23 C          63.3001   88.7417   12.1901 C.ar    1  UNL1        0.1788
     24 N          62.4487   88.1205   11.1228 N.ar    1  UNL1       -0.3069
@<TRIPOS>BOND
     1     2     1    1
     2     2     3    1
     3     3     4   ar
     4     4     5   ar
     5     5     6   ar
     6     6     7   ar
     7     7     8   ar
     8     8     9    1
     9     9    10    1
    10    11    10    1
    11    11    13    1
    12    13    14    1
    13    14    15   ar
    14    15    16   ar
    15    16    17   ar
    16    17    18   ar
    17    18    19   ar
    18    19    20    1
    19    20    21   ar
    20    21    22   ar
    21    22    23   ar
    22    23    24   ar
    23    11     2    1
    24    13    24    1
    25     8     3   ar
    26    19    14   ar
    27    24    20   ar
    28     1    12    1
@<TRIPOS>MOLECULE
*****
 24 28 0 0 0
SMALL
GASTEIGER

@<TRIPOS>ATOM
      1 O          61.5767   85.8288   13.0712 O.3     1  UNL1       -0.3799
      2 C          62.3313   84.9655   12.1041 C.3     1  UNL1        0.1360
      3 C          62.9095   83.6583   12.5588 C.ar    1  UNL1        0.0195
      4 C          62.7331   83.2144   13.9806 C.ar    1  UNL1        0.0966
      5 N          63.3113   81.9071   14.4354 N.ar    1  UNL1       -0.2426
      6 C          64.0659   81.0439   13.4682 C.ar    1  UNL1        0.0985
      7 C          64.2422   81.4878   12.0463 C.ar    1  UNL1        0.0162
      8 C          63.6640   82.7950   11.5916 C.ar    1  UNL1       -0.0209
      9 C          63.8403   83.2390   10.1697 C.3     1  UNL1        0.0264
     10 C          63.2621   84.5463    9.7150 C.3     1  UNL1        0.0096
     11 C          62.5076   85.4095   10.6821 C.3     1  UNL1        0.0565
     12 H          61.5556   85.3984   13.9403 H       1  UNL1        0.2108
     13 C          61.9294   86.7168   10.2274 C.3     1  UNL1        0.1121
     14 C          62.2539   88.0682   10.7916 C.ar    1  UNL1       -0.0002
     15 C          63.1774   88.5013   11.8914 C.ar    1  UNL1       -0.0024
     16 C          63.2972   89.9550   12.2411 C.ar    1  UNL1       -0.0003
     17 C          62.4935   90.9756   11.4911 C.ar    1  UNL1        0.0000
     18 C          61.5700   90.5425   10.3913 C.ar    1  UNL1        0.0012
     19 C          61.4502   89.0888   10.0416 C.ar    1  UNL1        0.0152
     20 C          60.6290   88.3681    9.0138 C.ar    1  UNL1        0.0804
     21 C          59.6248   88.5535    7.9151 C.ar    1  UNL1        0.1177
     22 N          59.3003   87.2020    7.3509 N.ar    1  UNL1       -0.2223
     23 C          60.1039   86.1814    8.1009 C.ar    1  UNL1        0.1788
     24 N          60.9251   86.9021    9.1287 N.ar    1  UNL1       -0.3069
@<TRIPOS>BOND
     1     2     1    1
     2     2     3    1
     3     3     4   ar
     4     4     5   ar
     5     5     6   ar
     6     6     7   ar
     7     7     8   ar
     8     8     9    1
     9     9    10    1
    10    11    10    1
    11    11    13    1
    12    13    14    1
    13    14    15   ar
    14    15    16   ar
    15    16    17   ar
    16    17    18   ar
    17    18    19   ar
    18    19    20    1
    19    20    21   ar
    20    21    22   ar
    21    22    23   ar
    22    23    24   ar
    23    11     2    1
    24    13    24    1
    25     8     3   ar
    26    19    14   ar
    27    24    20   ar
    28     1    12    1
@<TRIPOS>MOLECULE
*****
 24 28 0 0 0
SMALL
GASTEIGER

@<TRIPOS>ATOM
      1 O          61.5598   91.1610   10.3923 O.3     1  UNL1       -0.3799
      2 C          61.7682   89.6856   10.5652 C.3     1  UNL1        0.1360
      3 C          61.0401   88.7167    9.6815 C.ar    1  UNL1        0.0195
      4 C          60.1037   89.2232    8.6248 C.ar    1  UNL1        0.0966
      5 N          59.3756   88.2542    7.7410 N.ar    1  UNL1       -0.2426
      6 C          59.5839   86.7788    7.9140 C.ar    1  UNL1        0.0985
      7 C          60.5203   86.2724    8.9707 C.ar    1  UNL1        0.0162
      8 C          61.2484   87.2413    9.8545 C.ar    1  UNL1       -0.0209
      9 C          62.1848   86.7350   10.9112 C.3     1  UNL1        0.0264
     10 C          62.9129   87.7039   11.7949 C.3     1  UNL1        0.0096
     11 C          62.7046   89.1792   11.6220 C.3     1  UNL1        0.0565
     12 H          60.9290   91.3162    9.6719 H       1  UNL1        0.2108
     13 C          63.4327   90.1482   12.5058 C.3     1  UNL1        0.1121
     14 C          64.3237   91.2636   12.0452 C.ar    1  UNL1       -0.0002
     15 C          64.7320   91.7221   10.6767 C.ar    1  UNL1       -0.0024
     16 C          65.6560   92.8936   10.5229 C.ar    1  UNL1       -0.0003
     17 C          66.1717   93.6066   11.7377 C.ar    1  UNL1        0.0000
     18 C          65.7633   93.1482   13.1063 C.ar    1  UNL1        0.0012
     19 C          64.8393   91.9766   13.2600 C.ar    1  UNL1        0.0152
     20 C          64.2669   91.3019   14.4713 C.ar    1  UNL1        0.0804
     21 C          64.2319   91.3256   15.9708 C.ar    1  UNL1        0.1177
     22 N          63.3409   90.2102   16.4313 N.ar    1  UNL1       -0.2223
     23 C          62.8253   89.4971   15.2165 C.ar    1  UNL1        0.1788
     24 N          63.3976   90.1718   14.0052 N.ar    1  UNL1       -0.3069
@<TRIPOS>BOND
     1     2     1    1
     2     2     3    1
     3     3     4   ar
     4     4     5   ar
     5     5     6   ar
     6     6     7   ar
     7     7     8   ar
     8     8     9    1
     9     9    10    1
    10    11    10    1
    11    11    13    1
    12    13    14    1
    13    14    15   ar
    14    15    16   ar
    15    16    17   ar
    16    17    18   ar
    17    18    19   ar
    18    19    20    1
    19    20    21   ar
    20    21    22   ar
    21    22    23   ar
    22    23    24   ar
    23    11     2    1
    24    13    24    1
    25     8     3   ar
    26    19    14   ar
    27    24    20   ar
    28     1    12    1
@<TRIPOS>MOLECULE
*****
 24 28 0 0 0
SMALL
GASTEIGER

@<TRIPOS>ATOM
      1 O          61.9826   85.1943   14.2294 O.3     1  UNL1       -0.3799
      2 C          62.4242   84.4291   13.0172 C.3     1  UNL1        0.1360
      3 C          62.5248   82.9334   13.0699 C.ar    1  UNL1        0.0195
      4 C          62.1839   82.2030   14.3349 C.ar    1  UNL1        0.0966
      5 N          62.2845   80.7073   14.3876 N.ar    1  UNL1       -0.2426
      6 C          62.7260   79.9421   13.1754 C.ar    1  UNL1        0.0985
      7 C          63.0669   80.6725   11.9104 C.ar    1  UNL1        0.0162
      8 C          62.9663   82.1682   11.8577 C.ar    1  UNL1       -0.0209
      9 C          63.3072   82.8987   10.5927 C.3     1  UNL1        0.0264
     10 C          63.2066   84.3944   10.5400 C.3     1  UNL1        0.0096
     11 C          62.7651   85.1597   11.7522 C.3     1  UNL1        0.0565
     12 H          61.8029   84.5756   14.9546 H       1  UNL1        0.2108
     13 C          62.6645   86.6554   11.6994 C.3     1  UNL1        0.1121
     14 C          63.2867   87.6156   12.6694 C.ar    1  UNL1       -0.0002
     15 C          64.1313   87.4026   13.8906 C.ar    1  UNL1       -0.0024
     16 C          64.6200   88.5812   14.6793 C.ar    1  UNL1       -0.0003
     17 C          64.2641   89.9727   14.2468 C.ar    1  UNL1        0.0000
     18 C          63.4195   90.1857   13.0257 C.ar    1  UNL1        0.0012
     19 C          62.9308   89.0071   12.2370 C.ar    1  UNL1        0.0152
     20 C          62.0886   88.9068   10.9998 C.ar    1  UNL1        0.0804
     21 C          61.3482   89.7050    9.9678 C.ar    1  UNL1        0.1177
     22 N          60.7260   88.7447    8.9978 N.ar    1  UNL1       -0.2223
     23 C          61.0819   87.3531    9.4303 C.ar    1  UNL1        0.1788
     24 N          61.9241   87.4534   10.6675 N.ar    1  UNL1       -0.3069
@<TRIPOS>BOND
     1     2     1    1
     2     2     3    1
     3     3     4   ar
     4     4     5   ar
     5     5     6   ar
     6     6     7   ar
     7     7     8   ar
     8     8     9    1
     9     9    10    1
    10    11    10    1
    11    11    13    1
    12    13    14    1
    13    14    15   ar
    14    15    16   ar
    15    16    17   ar
    16    17    18   ar
    17    18    19   ar
    18    19    20    1
    19    20    21   ar
    20    21    22   ar
    21    22    23   ar
    22    23    24   ar
    23    11     2    1
    24    13    24    1
    25     8     3   ar
    26    19    14   ar
    27    24    20   ar
    28     1    12    1
@<TRIPOS>MOLECULE
*****
 24 28 0 0 0
SMALL
GASTEIGER

@<TRIPOS>ATOM
      1 O          63.5434   87.7196   12.6292 O.3     1  UNL1       -0.3799
      2 C          62.7355   88.4751   11.6160 C.3     1  UNL1        0.1360
      3 C          61.9093   87.7308   10.6094 C.ar    1  UNL1        0.0195
      4 C          61.8910   86.2310   10.6160 C.ar    1  UNL1        0.0966
      5 N          61.0647   85.4867    9.6093 N.ar    1  UNL1       -0.2426
      6 C          60.2569   86.2422    8.5961 C.ar    1  UNL1        0.0985
      7 C          60.2752   87.7420    8.5895 C.ar    1  UNL1        0.0162
      8 C          61.1015   88.4863    9.5962 C.ar    1  UNL1       -0.0209
      9 C          61.1199   89.9862    9.5896 C.3     1  UNL1        0.0264
     10 C          61.9461   90.7305   10.5963 C.3     1  UNL1        0.0096
     11 C          62.7539   89.9751   11.6095 C.3     1  UNL1        0.0565
     12 H          63.4202   86.7668   12.4956 H       1  UNL1        0.2108
     13 C          63.5802   90.7194   12.6161 C.3     1  UNL1        0.1121
     14 C          64.6316   91.7443   12.3091 C.ar    1  UNL1       -0.0002
     15 C          65.1438   92.2996   11.0133 C.ar    1  UNL1       -0.0024
     16 C          66.2257   93.3385   11.0181 C.ar    1  UNL1       -0.0003
     17 C          66.7954   93.8221   12.3187 C.ar    1  UNL1        0.0000
     18 C          66.2832   93.2667   13.6145 C.ar    1  UNL1        0.0012
     19 C          65.2013   92.2278   13.6097 C.ar    1  UNL1        0.0152
     20 C          64.5020   91.5018   14.7205 C.ar    1  UNL1        0.0804
     21 C          64.4219   91.3519   16.2109 C.ar    1  UNL1        0.1177
     22 N          63.3705   90.3271   16.5179 N.ar    1  UNL1       -0.2223
     23 C          62.8008   89.8435   15.2172 C.ar    1  UNL1        0.1788
     24 N          63.5001   90.5695   14.1064 N.ar    1  UNL1       -0.3069
@<TRIPOS>BOND
     1     2     1    1
     2     2     3    1
     3     3     4   ar
     4     4     5   ar
     5     5     6   ar
     6     6     7   ar
     7     7     8   ar
     8     8     9    1
     9     9    10    1
    10    11    10    1
    11    11    13    1
    12    13    14    1
    13    14    15   ar
    14    15    16   ar
    15    16    17   ar
    16    17    18   ar
    17    18    19   ar
    18    19    20    1
    19    20    21   ar
    20    21    22   ar
    21    22    23   ar
    22    23    24   ar
    23    11     2    1
    24    13    24    1
    25     8     3   ar
    26    19    14   ar
    27    24    20   ar
    28     1    12    1
@<TRIPOS>MOLECULE
*****
 24 28 0 0 0
SMALL
GASTEIGER

@<TRIPOS>ATOM
      1 O          61.6344   91.1839   10.1381 O.3     1  UNL1       -0.3799
      2 C          61.7996   89.7131   10.3815 C.3     1  UNL1        0.1360
      3 C          61.0325   88.7250    9.5537 C.ar    1  UNL1        0.0195
      4 C          60.1003   89.2079    8.4824 C.ar    1  UNL1        0.0966
      5 N          59.3332   88.2199    7.6545 N.ar    1  UNL1       -0.2426
      6 C          59.4984   86.7490    7.8979 C.ar    1  UNL1        0.0985
      7 C          60.4306   86.2661    8.9692 C.ar    1  UNL1        0.0162
      8 C          61.1977   87.2542    9.7971 C.ar    1  UNL1       -0.0209
      9 C          62.1299   86.7713   10.8684 C.3     1  UNL1        0.0264
     10 C          62.8970   87.7594   11.6963 C.3     1  UNL1        0.0096
     11 C          62.7319   89.2302   11.4529 C.3     1  UNL1        0.0565
     12 H          61.0007   91.3232    9.4171 H       1  UNL1        0.2108
     13 C          63.4990   90.2182   12.2808 C.3     1  UNL1        0.1121
     14 C          63.5435   90.2665   13.7794 C.ar    1  UNL1       -0.0002
     15 C          62.8927   89.4173   14.8307 C.ar    1  UNL1       -0.0024
     16 C          63.1266   89.7112   16.2829 C.ar    1  UNL1       -0.0003
     17 C          64.0114   90.8542   16.6837 C.ar    1  UNL1        0.0000
     18 C          64.6622   91.7034   15.6324 C.ar    1  UNL1        0.0012
     19 C          64.4282   91.4095   14.1803 C.ar    1  UNL1        0.0152
     20 C          64.9305   92.0677   12.9294 C.ar    1  UNL1        0.0804
     21 C          65.7878   93.1809   12.4041 C.ar    1  UNL1        0.1177
     22 N          65.7433   93.1326   10.9055 N.ar    1  UNL1       -0.2223
     23 C          64.8585   91.9895   10.5047 C.ar    1  UNL1        0.1788
     24 N          64.3562   91.3314   11.7555 N.ar    1  UNL1       -0.3069
@<TRIPOS>BOND
     1     2     1    1
     2     2     3    1
     3     3     4   ar
     4     4     5   ar
     5     5     6   ar
     6     6     7   ar
     7     7     8   ar
     8     8     9    1
     9     9    10    1
    10    11    10    1
    11    11    13    1
    12    13    14    1
    13    14    15   ar
    14    15    16   ar
    15    16    17   ar
    16    17    18   ar
    17    18    19   ar
    18    19    20    1
    19    20    21   ar
    20    21    22   ar
    21    22    23   ar
    22    23    24   ar
    23    11     2    1
    24    13    24    1
    25     8     3   ar
    26    19    14   ar
    27    24    20   ar
    28     1    12    1
@<TRIPOS>MOLECULE
*****
 24 28 0 0 0
SMALL
GASTEIGER

@<TRIPOS>ATOM
      1 O          63.1143   84.5008   10.1619 O.3     1  UNL1       -0.3799
      2 C          62.8323   84.1348   11.5889 C.3     1  UNL1        0.1360
      3 C          62.7948   82.6927   12.0000 C.ar    1  UNL1        0.0195
      4 C          63.0395   81.6167   10.9839 C.ar    1  UNL1        0.0966
      5 N          63.0020   80.1746   11.3950 N.ar    1  UNL1       -0.2426
      6 C          62.7200   79.8086   12.8220 C.ar    1  UNL1        0.0985
      7 C          62.4753   80.8846   13.8381 C.ar    1  UNL1        0.0162
      8 C          62.5128   82.3267   13.4270 C.ar    1  UNL1       -0.0209
      9 C          62.2681   83.4027   14.4430 C.3     1  UNL1        0.0264
     10 C          62.3056   84.8448   14.0319 C.3     1  UNL1        0.0096
     11 C          62.5876   85.2109   12.6049 C.3     1  UNL1        0.0565
     12 H          63.2481   83.6933    9.6413 H       1  UNL1        0.2108
     13 C          62.6251   86.6530   12.1939 C.3     1  UNL1        0.1121
     14 C          63.3421   87.7566   12.9136 C.ar    1  UNL1       -0.0002
     15 C          64.1745   87.7662   14.1614 C.ar    1  UNL1       -0.0024
     16 C          64.7771   89.0496   14.6510 C.ar    1  UNL1       -0.0003
     17 C          64.5473   90.3233   13.8929 C.ar    1  UNL1        0.0000
     18 C          63.7148   90.3137   12.6451 C.ar    1  UNL1        0.0012
     19 C          63.1122   89.0303   12.1555 C.ar    1  UNL1        0.0152
     20 C          62.2532   88.7139   10.9672 C.ar    1  UNL1        0.0804
     21 C          61.5802   89.3057    9.7642 C.ar    1  UNL1        0.1177
     22 N          60.8633   88.2020    9.0445 N.ar    1  UNL1       -0.2223
     23 C          61.0931   86.9282    9.8027 C.ar    1  UNL1        0.1788
     24 N          61.9521   87.2447   10.9909 N.ar    1  UNL1       -0.3069
@<TRIPOS>BOND
     1     2     1    1
     2     2     3    1
     3     3     4   ar
     4     4     5   ar
     5     5     6   ar
     6     6     7   ar
     7     7     8   ar
     8     8     9    1
     9     9    10    1
    10    11    10    1
    11    11    13    1
    12    13    14    1
    13    14    15   ar
    14    15    16   ar
    15    16    17   ar
    16    17    18   ar
    17    18    19   ar
    18    19    20    1
    19    20    21   ar
    20    21    22   ar
    21    22    23   ar
    22    23    24   ar
    23    11     2    1
    24    13    24    1
    25     8     3   ar
    26    19    14   ar
    27    24    20   ar
    28     1    12    1
@<TRIPOS>MOLECULE
*****
 24 28 0 0 0
SMALL
GASTEIGER

@<TRIPOS>ATOM
      1 O          63.1779   84.4702   10.2506 O.3     1  UNL1       -0.3799
      2 C          62.8937   84.0369   11.6583 C.3     1  UNL1        0.1360
      3 C          62.8345   82.5767   11.9961 C.ar    1  UNL1        0.0195
      4 C          63.0595   81.5497   10.9262 C.ar    1  UNL1        0.0966
      5 N          63.0002   80.0895   11.2640 N.ar    1  UNL1       -0.2426
      6 C          62.7161   79.6562   12.6717 C.ar    1  UNL1        0.0985
      7 C          62.4911   80.6832   13.7416 C.ar    1  UNL1        0.0162
      8 C          62.5504   82.1434   13.4038 C.ar    1  UNL1       -0.0209
      9 C          62.3254   83.1705   14.4736 C.3     1  UNL1        0.0264
     10 C          62.3846   84.6307   14.1358 C.3     1  UNL1        0.0096
     11 C          62.6688   85.0640   12.7282 C.3     1  UNL1        0.0565
     12 H          63.2975   83.6880    9.6895 H       1  UNL1        0.2108
     13 C          62.7280   86.5243   12.3904 C.3     1  UNL1        0.1121
     14 C          62.0409   87.1906   11.2354 C.ar    1  UNL1       -0.0002
     15 C          61.1558   86.6548   10.1493 C.ar    1  UNL1       -0.0024
     16 C          60.6027   87.5812    9.1073 C.ar    1  UNL1       -0.0003
     17 C          60.9348   89.0433    9.1513 C.ar    1  UNL1        0.0000
     18 C          61.8198   89.5791   10.2373 C.ar    1  UNL1        0.0012
     19 C          62.3729   88.6527   11.2794 C.ar    1  UNL1        0.0152
     20 C          63.2652   88.8900   12.4615 C.ar    1  UNL1        0.0804
     21 C          64.0219   89.9404   13.2194 C.ar    1  UNL1        0.1177
     22 N          64.7090   89.2740   14.3744 N.ar    1  UNL1       -0.2223
     23 C          64.3769   87.8119   14.3304 C.ar    1  UNL1        0.1788
     24 N          63.4846   87.5746   13.1482 N.ar    1  UNL1       -0.3069
@<TRIPOS>BOND
     1     2     1    1
     2     2     3    1
     3     3     4   ar
     4     4     5   ar
     5     5     6   ar
     6     6     7   ar
     7     7     8   ar
     8     8     9    1
     9     9    10    1
    10    11    10    1
    11    11    13    1
    12    13    14    1
    13    14    15   ar
    14    15    16   ar
    15    16    17   ar
    16    17    18   ar
    17    18    19   ar
    18    19    20    1
    19    20    21   ar
    20    21    22   ar
    21    22    23   ar
    22    23    24   ar
    23    11     2    1
    24    13    24    1
    25     8     3   ar
    26    19    14   ar
    27    24    20   ar
    28     1    12    1
@<TRIPOS>MOLECULE
*****
 24 28 0 0 0
SMALL
GASTEIGER

@<TRIPOS>ATOM
      1 O          63.7862   88.1019   12.9608 O.3     1  UNL1       -0.3799
      2 C          63.0566   88.7534   11.8237 C.3     1  UNL1        0.1360
      3 C          62.1852   87.9303   10.9218 C.ar    1  UNL1        0.0195
      4 C          62.0435   86.4557   11.1573 C.ar    1  UNL1        0.0966
      5 N          61.1722   85.6326   10.2555 N.ar    1  UNL1       -0.2426
      6 C          60.4426   86.2841    9.1183 C.ar    1  UNL1        0.0985
      7 C          60.5842   87.7587    8.8829 C.ar    1  UNL1        0.0162
      8 C          61.4556   88.5818    9.7847 C.ar    1  UNL1       -0.0209
      9 C          61.5973   90.0564    9.5493 C.3     1  UNL1        0.0264
     10 C          62.4687   90.8795   10.4511 C.3     1  UNL1        0.0096
     11 C          63.1983   90.2281   11.5883 C.3     1  UNL1        0.0565
     12 H          63.5869   87.1526   12.9714 H       1  UNL1        0.2108
     13 C          64.0697   91.0512   12.4901 C.3     1  UNL1        0.1121
     14 C          64.0352   91.0513   13.9897 C.ar    1  UNL1       -0.0002
     15 C          63.1932   90.2954   14.9744 C.ar    1  UNL1       -0.0024
     16 C          63.3887   90.5071   16.4464 C.ar    1  UNL1       -0.0003
     17 C          64.4262   91.4746   16.9338 C.ar    1  UNL1        0.0000
     18 C          65.2682   92.2305   15.9491 C.ar    1  UNL1        0.0012
     19 C          65.0727   92.0188   14.4771 C.ar    1  UNL1        0.0152
     20 C          65.7483   92.6166   13.2786 C.ar    1  UNL1        0.0804
     21 C          66.8071   93.5841   12.8392 C.ar    1  UNL1        0.1177
     22 N          66.8415   93.5839   11.3396 N.ar    1  UNL1       -0.2223
     23 C          65.8040   92.6164   10.8522 C.ar    1  UNL1        0.1788
     24 N          65.1284   92.0186   12.0506 N.ar    1  UNL1       -0.3069
@<TRIPOS>BOND
     1     2     1    1
     2     2     3    1
     3     3     4   ar
     4     4     5   ar
     5     5     6   ar
     6     6     7   ar
     7     7     8   ar
     8     8     9    1
     9     9    10    1
    10    11    10    1
    11    11    13    1
    12    13    14    1
    13    14    15   ar
    14    15    16   ar
    15    16    17   ar
    16    17    18   ar
    17    18    19   ar
    18    19    20    1
    19    20    21   ar
    20    21    22   ar
    21    22    23   ar
    22    23    24   ar
    23    11     2    1
    24    13    24    1
    25     8     3   ar
    26    19    14   ar
    27    24    20   ar
    28     1    12    1
