@<TRIPOS>MOLECULE
*****
 29 31 0 0 0
SMALL
GASTEIGER

@<TRIPOS>ATOM
      1 O          62.7359   88.3248   16.4770 O.2     1  UNL1       -0.2732
      2 C          63.6642   87.3733   15.7822 C.2     1  UNL1        0.2430
      3 N          64.3839   87.8017   14.5378 N.am    1  UNL1       -0.2960
      4 H          64.9932   87.1772   14.0818 H       1  UNL1        0.1501
      5 C          63.8729   85.9933   16.3317 C.3     1  UNL1        0.1759
      6 N          63.8992   84.8133   15.4058 N.am    1  UNL1       -0.2931
      7 C          62.6140   84.2257   14.9030 C.2     1  UNL1        0.2462
      8 O          61.3024   84.8180   15.3260 O.2     1  UNL1       -0.2701
      9 H          64.7600   84.4246   15.1282 H       1  UNL1        0.1502
     10 C          62.6403   83.0458   13.9771 C.ar    1  UNL1        0.0535
     11 C          61.9907   81.7571   14.3859 C.ar    1  UNL1        0.0068
     12 C          62.0171   80.5772   13.4601 C.ar    1  UNL1        0.0298
     13 C          62.6930   80.6861   12.1255 C.ar    1  UNL1        0.1401
     14 F          62.7193   79.5062   11.1996 F       1  UNL1       -0.2042
     15 C          63.3426   81.9748   11.7167 C.ar    1  UNL1        0.0298
     16 C          63.3162   83.1547   12.6425 C.ar    1  UNL1        0.0068
     17 C          64.1753   89.1818   13.9882 C.3     1  UNL1        0.1366
     18 C          63.4770   89.3680   12.6738 C.ar    1  UNL1        0.0012
     19 C          63.4217   90.7262   12.0398 C.ar    1  UNL1       -0.0023
     20 C          62.7234   90.9125   10.7253 C.ar    1  UNL1       -0.0003
     21 C          62.0804   89.7405   10.0450 C.ar    1  UNL1       -0.0000
     22 C          62.1356   88.3822   10.6791 C.ar    1  UNL1       -0.0003
     23 C          62.8339   88.1960   11.9935 C.ar    1  UNL1       -0.0023
     24 C          64.6650   90.3756   14.7531 C.ar    1  UNL1        0.1026
     25 C          66.0661   90.8721   14.5519 C.ar    1  UNL1        0.0201
     26 C          66.5558   92.0659   15.3167 C.ar    1  UNL1        0.0238
     27 C          65.6444   92.7632   16.2828 C.ar    1  UNL1        0.1222
     28 N          64.2434   92.2666   16.4840 N.ar    1  UNL1       -0.1466
     29 N          63.7537   91.0728   15.7192 N.ar    1  UNL1       -0.1503
@<TRIPOS>BOND
     1     1     2    2
     2     2     5    1
     3     5     6    1
     4     6     7   am
     5     7     8    2
     6     7    10    1
     7    10    11   ar
     8    11    12   ar
     9    12    13   ar
    10    13    14    1
    11    13    15   ar
    12    15    16   ar
    13     2     3   am
    14     3    17    1
    15    17    18    1
    16    18    19   ar
    17    19    20   ar
    18    20    21   ar
    19    21    22   ar
    20    22    23   ar
    21    17    24    1
    22    24    25   ar
    23    25    26   ar
    24    26    27   ar
    25    27    28   ar
    26    28    29   ar
    27    16    10   ar
    28    23    18   ar
    29    29    24   ar
    30     6     9    1
    31     3     4    1
@<TRIPOS>MOLECULE
*****
 29 31 0 0 0
SMALL
GASTEIGER

@<TRIPOS>ATOM
      1 O          59.9687   88.1114   11.6292 O.2     1  UNL1       -0.2732
      2 C          61.2526   88.8408   11.3655 C.2     1  UNL1        0.2430
      3 N          62.4564   88.0888   10.8804 N.am    1  UNL1       -0.2960
      4 H          63.2991   88.5675   10.7074 H       1  UNL1        0.1501
      5 C          61.3327   90.3221   11.5869 C.3     1  UNL1        0.1759
      6 N          62.6474   90.9598   11.9264 N.am    1  UNL1       -0.2931
      7 C          63.2627   90.7369   13.2761 C.2     1  UNL1        0.2462
      8 O          62.5633   89.8765   14.2864 O.2     1  UNL1       -0.2701
      9 H          63.1064   91.5245   11.2633 H       1  UNL1        0.1502
     10 C          64.5773   91.3745   13.6156 C.ar    1  UNL1        0.0535
     11 C          65.3316   92.1408   12.5697 C.ar    1  UNL1        0.0068
     12 C          66.6461   92.7783   12.9093 C.ar    1  UNL1        0.0298
     13 C          67.2065   92.6497   14.2947 C.ar    1  UNL1        0.1401
     14 F          68.5211   93.2873   14.6342 F       1  UNL1       -0.2042
     15 C          66.4522   91.8835   15.3406 C.ar    1  UNL1        0.0298
     16 C          65.1376   91.2459   15.0011 C.ar    1  UNL1        0.0068
     17 C          62.3764   86.6073   10.6590 C.3     1  UNL1        0.1366
     18 C          62.0015   86.0698    9.3098 C.ar    1  UNL1        0.0012
     19 C          63.0293   85.3736    8.4679 C.ar    1  UNL1       -0.0023
     20 C          62.6545   84.8361    7.1185 C.ar    1  UNL1       -0.0003
     21 C          61.2519   84.9948    6.6112 C.ar    1  UNL1       -0.0000
     22 C          60.2241   85.6911    7.4531 C.ar    1  UNL1       -0.0003
     23 C          60.5989   86.2286    8.8024 C.ar    1  UNL1       -0.0023
     24 C          62.6712   85.6634   11.7869 C.ar    1  UNL1        0.1026
     25 C          62.4543   84.1900   11.6079 C.ar    1  UNL1        0.0201
     26 C          62.7491   83.2461   12.7358 C.ar    1  UNL1        0.0238
     27 C          63.2607   83.7757   14.0427 C.ar    1  UNL1        0.1222
     28 N          63.4776   85.2490   14.2216 N.ar    1  UNL1       -0.1466
     29 N          63.1828   86.1929   13.0937 N.ar    1  UNL1       -0.1503
@<TRIPOS>BOND
     1     1     2    2
     2     2     5    1
     3     5     6    1
     4     6     7   am
     5     7     8    2
     6     7    10    1
     7    10    11   ar
     8    11    12   ar
     9    12    13   ar
    10    13    14    1
    11    13    15   ar
    12    15    16   ar
    13     2     3   am
    14     3    17    1
    15    17    18    1
    16    18    19   ar
    17    19    20   ar
    18    20    21   ar
    19    21    22   ar
    20    22    23   ar
    21    17    24    1
    22    24    25   ar
    23    25    26   ar
    24    26    27   ar
    25    27    28   ar
    26    28    29   ar
    27    16    10   ar
    28    23    18   ar
    29    29    24   ar
    30     6     9    1
    31     3     4    1
@<TRIPOS>MOLECULE
*****
 29 31 0 0 0
SMALL
GASTEIGER

@<TRIPOS>ATOM
      1 O          62.9881   88.8467   15.9044 O.2     1  UNL1       -0.2732
      2 C          63.7292   87.8244   15.0945 C.2     1  UNL1        0.2430
      3 N          64.1019   88.1209   13.6722 N.am    1  UNL1       -0.2960
      4 H          64.5883   87.4500   13.1406 H       1  UNL1        0.1501
      5 C          64.0977   86.5057   15.7070 C.3     1  UNL1        0.1759
      6 N          64.0683   85.2579   14.8750 N.am    1  UNL1       -0.2931
      7 C          62.8000   84.4662   14.7549 C.2     1  UNL1        0.2462
      8 O          61.5609   84.9222   15.4668 O.2     1  UNL1       -0.2701
      9 H          64.8815   84.9586   14.4077 H       1  UNL1        0.1502
     10 C          62.7706   83.2184   13.9228 C.ar    1  UNL1        0.0535
     11 C          62.0845   81.9886   14.4392 C.ar    1  UNL1        0.0068
     12 C          62.0551   80.7409   13.6072 C.ar    1  UNL1        0.0298
     13 C          62.7120   80.7230   12.2588 C.ar    1  UNL1        0.1401
     14 F          62.6827   79.4752   11.4267 F       1  UNL1       -0.2042
     15 C          63.3982   81.9528   11.7424 C.ar    1  UNL1        0.0298
     16 C          63.4275   83.2005   12.5744 C.ar    1  UNL1        0.0068
     17 C          63.7335   89.4397   13.0596 C.3     1  UNL1        0.1366
     18 C          64.5959   90.6438   13.2966 C.ar    1  UNL1        0.0012
     19 C          64.7067   91.7060   12.2433 C.ar    1  UNL1       -0.0023
     20 C          65.5691   92.9103   12.4803 C.ar    1  UNL1       -0.0003
     21 C          66.3208   93.0522   13.7706 C.ar    1  UNL1       -0.0000
     22 C          66.2100   91.9899   14.8239 C.ar    1  UNL1       -0.0003
     23 C          65.3476   90.7857   14.5869 C.ar    1  UNL1       -0.0023
     24 C          62.5026   89.5542   12.2099 C.ar    1  UNL1        0.1026
     25 C          62.6158   89.5033   10.7150 C.ar    1  UNL1        0.0201
     26 C          61.3849   89.6178    9.8654 C.ar    1  UNL1        0.0238
     27 C          60.0409   89.7833   10.5107 C.ar    1  UNL1        0.1222
     28 N          59.9278   89.8343   12.0055 N.ar    1  UNL1       -0.1466
     29 N          61.1587   89.7197   12.8551 N.ar    1  UNL1       -0.1503
@<TRIPOS>BOND
     1     1     2    2
     2     2     5    1
     3     5     6    1
     4     6     7   am
     5     7     8    2
     6     7    10    1
     7    10    11   ar
     8    11    12   ar
     9    12    13   ar
    10    13    14    1
    11    13    15   ar
    12    15    16   ar
    13     2     3   am
    14     3    17    1
    15    17    18    1
    16    18    19   ar
    17    19    20   ar
    18    20    21   ar
    19    21    22   ar
    20    22    23   ar
    21    17    24    1
    22    24    25   ar
    23    25    26   ar
    24    26    27   ar
    25    27    28   ar
    26    28    29   ar
    27    16    10   ar
    28    23    18   ar
    29    29    24   ar
    30     6     9    1
    31     3     4    1
@<TRIPOS>MOLECULE
*****
 29 31 0 0 0
SMALL
GASTEIGER

@<TRIPOS>ATOM
      1 O          65.0530   90.0896   14.0607 O.2     1  UNL1       -0.2732
      2 C          64.0547   90.6896   13.1155 C.2     1  UNL1        0.2430
      3 N          64.4167   91.9049   12.3143 N.am    1  UNL1       -0.2960
      4 H          63.7615   92.2987   11.6939 H       1  UNL1        0.1501
      5 C          62.6944   90.0743   12.9714 C.3     1  UNL1        0.1759
      6 N          62.4632   88.9947   11.9559 N.am    1  UNL1       -0.2931
      7 C          61.4671   89.2025   10.8539 C.2     1  UNL1        0.2462
      8 O          60.7021   90.4898   10.7672 O.2     1  UNL1       -0.2701
      9 H          62.9653   88.1498   12.0127 H       1  UNL1        0.1502
     10 C          61.2360   88.1229    9.8383 C.ar    1  UNL1        0.0535
     11 C          59.9678   88.1056    9.0375 C.ar    1  UNL1        0.0068
     12 C          59.7367   87.0261    8.0221 C.ar    1  UNL1        0.0298
     13 C          60.7738   85.9638    7.8075 C.ar    1  UNL1        0.1401
     14 F          60.5427   84.8843    6.7920 F       1  UNL1       -0.2042
     15 C          62.0420   85.9811    8.6083 C.ar    1  UNL1        0.0298
     16 C          62.2731   87.0607    9.6237 C.ar    1  UNL1        0.0068
     17 C          65.7771   92.5203   12.4584 C.3     1  UNL1        0.1366
     18 C          66.4387   93.1628   11.2754 C.ar    1  UNL1        0.0012
     19 C          67.3427   92.3556   10.3916 C.ar    1  UNL1       -0.0023
     20 C          68.0044   92.9981    9.2086 C.ar    1  UNL1       -0.0003
     21 C          67.7620   94.4479    8.9094 C.ar    1  UNL1       -0.0000
     22 C          66.8579   95.2551    9.7933 C.ar    1  UNL1       -0.0003
     23 C          66.1963   94.6126   10.9762 C.ar    1  UNL1       -0.0023
     24 C          66.4759   92.4932   13.7854 C.ar    1  UNL1        0.1026
     25 C          67.8925   92.0085   13.8773 C.ar    1  UNL1        0.0201
     26 C          68.5912   91.9814   15.2044 C.ar    1  UNL1        0.0238
     27 C          67.8733   92.4389   16.4395 C.ar    1  UNL1        0.1222
     28 N          66.4568   92.9235   16.3475 N.ar    1  UNL1       -0.1466
     29 N          65.7580   92.9506   15.0205 N.ar    1  UNL1       -0.1503
@<TRIPOS>BOND
     1     1     2    2
     2     2     5    1
     3     5     6    1
     4     6     7   am
     5     7     8    2
     6     7    10    1
     7    10    11   ar
     8    11    12   ar
     9    12    13   ar
    10    13    14    1
    11    13    15   ar
    12    15    16   ar
    13     2     3   am
    14     3    17    1
    15    17    18    1
    16    18    19   ar
    17    19    20   ar
    18    20    21   ar
    19    21    22   ar
    20    22    23   ar
    21    17    24    1
    22    24    25   ar
    23    25    26   ar
    24    26    27   ar
    25    27    28   ar
    26    28    29   ar
    27    16    10   ar
    28    23    18   ar
    29    29    24   ar
    30     6     9    1
    31     3     4    1
@<TRIPOS>MOLECULE
*****
 29 31 0 0 0
SMALL
GASTEIGER

@<TRIPOS>ATOM
      1 O          59.9310   87.9639   11.5525 O.2     1  UNL1       -0.2732
      2 C          61.2133   88.7045   11.3133 C.2     1  UNL1        0.2430
      3 N          62.4233   87.9689   10.8189 N.am    1  UNL1       -0.2960
      4 H          63.2649   88.4550   10.6619 H       1  UNL1        0.1501
      5 C          61.2855   90.1808   11.5686 C.3     1  UNL1        0.1759
      6 N          62.6049   90.8254   11.8750 N.am    1  UNL1       -0.2931
      7 C          63.2311   90.6467   13.2263 C.2     1  UNL1        0.2462
      8 O          62.5379   89.8236   14.2712 O.2     1  UNL1       -0.2701
      9 H          63.0599   91.3656   11.1892 H       1  UNL1        0.1502
     10 C          64.5505   91.2912   13.5327 C.ar    1  UNL1        0.0535
     11 C          65.1901   92.2043   12.5292 C.ar    1  UNL1        0.0068
     12 C          66.5095   92.8488   12.8356 C.ar    1  UNL1        0.0298
     13 C          67.1892   92.5802   14.1455 C.ar    1  UNL1        0.1401
     14 F          68.5086   93.2247   14.4519 F       1  UNL1       -0.2042
     15 C          66.5495   91.6671   15.1490 C.ar    1  UNL1        0.0298
     16 C          65.2302   91.0226   14.8426 C.ar    1  UNL1        0.0068
     17 C          62.3512   86.4924   10.5635 C.3     1  UNL1        0.1366
     18 C          62.6861   85.5246   11.6594 C.ar    1  UNL1        0.0012
     19 C          63.2972   86.0198   12.9366 C.ar    1  UNL1       -0.0023
     20 C          63.6321   85.0519   14.0325 C.ar    1  UNL1       -0.0003
     21 C          63.3559   83.5888   13.8513 C.ar    1  UNL1       -0.0000
     22 C          62.7447   83.0935   12.5740 C.ar    1  UNL1       -0.0003
     23 C          62.4098   84.0614   11.4781 C.ar    1  UNL1       -0.0023
     24 C          61.9441   85.9840    9.2123 C.ar    1  UNL1        0.1026
     25 C          62.9558   85.3232    8.3236 C.ar    1  UNL1        0.0201
     26 C          62.5488   84.8148    6.9724 C.ar    1  UNL1        0.0238
     27 C          61.1299   84.9672    6.5099 C.ar    1  UNL1        0.1222
     28 N          60.1183   85.6279    7.3986 N.ar    1  UNL1       -0.1466
     29 N          60.5254   86.1364    8.7498 N.ar    1  UNL1       -0.1503
@<TRIPOS>BOND
     1     1     2    2
     2     2     5    1
     3     5     6    1
     4     6     7   am
     5     7     8    2
     6     7    10    1
     7    10    11   ar
     8    11    12   ar
     9    12    13   ar
    10    13    14    1
    11    13    15   ar
    12    15    16   ar
    13     2     3   am
    14     3    17    1
    15    17    18    1
    16    18    19   ar
    17    19    20   ar
    18    20    21   ar
    19    21    22   ar
    20    22    23   ar
    21    17    24    1
    22    24    25   ar
    23    25    26   ar
    24    26    27   ar
    25    27    28   ar
    26    28    29   ar
    27    16    10   ar
    28    23    18   ar
    29    29    24   ar
    30     6     9    1
    31     3     4    1
@<TRIPOS>MOLECULE
*****
 29 31 0 0 0
SMALL
GASTEIGER

@<TRIPOS>ATOM
      1 O          64.9735   84.4586   14.0993 O.2     1  UNL1       -0.2732
      2 C          64.1068   85.6826   14.1249 C.2     1  UNL1        0.2430
      3 N          62.9462   85.7996   13.1818 N.am    1  UNL1       -0.2960
      4 H          62.3774   86.6030   13.1986 H       1  UNL1        0.1501
      5 C          64.4007   86.7896   15.0934 C.3     1  UNL1        0.1759
      6 N          65.0016   88.0741   14.6045 N.am    1  UNL1       -0.2931
      7 C          64.1926   89.3370   14.6271 C.2     1  UNL1        0.2462
      8 O          62.7827   89.3155   15.1386 O.2     1  UNL1       -0.2701
      9 H          65.9270   88.0882   14.2688 H       1  UNL1        0.1502
     10 C          64.7936   90.6215   14.1382 C.ar    1  UNL1        0.0535
     11 C          64.4896   91.1127   12.7539 C.ar    1  UNL1        0.0068
     12 C          65.0905   92.3972   12.2651 C.ar    1  UNL1        0.0298
     13 C          65.9954   93.1904   13.1605 C.ar    1  UNL1        0.1401
     14 F          66.5963   94.4750   12.6716 F       1  UNL1       -0.2042
     15 C          66.2994   92.6993   14.5448 C.ar    1  UNL1        0.0298
     16 C          65.6985   91.4148   15.0337 C.ar    1  UNL1        0.0068
     17 C          62.6523   84.6926   12.2132 C.3     1  UNL1        0.1366
     18 C          62.4264   85.0047   10.7636 C.ar    1  UNL1        0.0012
     19 C          63.3657   84.4665    9.7253 C.ar    1  UNL1       -0.0023
     20 C          63.1398   84.7786    8.2756 C.ar    1  UNL1       -0.0003
     21 C          61.9747   85.6290    7.8642 C.ar    1  UNL1       -0.0000
     22 C          61.0353   86.1672    8.9025 C.ar    1  UNL1       -0.0003
     23 C          61.2612   85.8551   10.3522 C.ar    1  UNL1       -0.0023
     24 C          62.5843   83.2735   12.6943 C.ar    1  UNL1        0.1026
     25 C          62.9858   82.1523   11.7823 C.ar    1  UNL1        0.0201
     26 C          62.9178   80.7331   12.2634 C.ar    1  UNL1        0.0238
     27 C          62.4482   80.4352   13.6565 C.ar    1  UNL1        0.1222
     28 N          62.0467   81.5564   14.5685 N.ar    1  UNL1       -0.1466
     29 N          62.1147   82.9755   14.0874 N.ar    1  UNL1       -0.1503
@<TRIPOS>BOND
     1     1     2    2
     2     2     5    1
     3     5     6    1
     4     6     7   am
     5     7     8    2
     6     7    10    1
     7    10    11   ar
     8    11    12   ar
     9    12    13   ar
    10    13    14    1
    11    13    15   ar
    12    15    16   ar
    13     2     3   am
    14     3    17    1
    15    17    18    1
    16    18    19   ar
    17    19    20   ar
    18    20    21   ar
    19    21    22   ar
    20    22    23   ar
    21    17    24    1
    22    24    25   ar
    23    25    26   ar
    24    26    27   ar
    25    27    28   ar
    26    28    29   ar
    27    16    10   ar
    28    23    18   ar
    29    29    24   ar
    30     6     9    1
    31     3     4    1
@<TRIPOS>MOLECULE
*****
 29 31 0 0 0
SMALL
GASTEIGER

@<TRIPOS>ATOM
      1 O          65.2520   90.1090   14.1075 O.2     1  UNL1       -0.2732
      2 C          64.1979   90.6984   13.2178 C.2     1  UNL1        0.2430
      3 N          64.5077   91.9091   12.3884 N.am    1  UNL1       -0.2960
      4 H          63.8159   92.2960   11.8044 H       1  UNL1        0.1501
      5 C          62.8340   90.0770   13.1575 C.3     1  UNL1        0.1759
      6 N          62.5383   89.0140   12.1412 N.am    1  UNL1       -0.2931
      7 C          61.6286   89.3127   10.9866 C.2     1  UNL1        0.2462
      8 O          61.0146   90.6742   10.8482 O.2     1  UNL1       -0.2701
      9 H          62.9414   88.1204   12.2320 H       1  UNL1        0.1502
     10 C          61.3329   88.2497    9.9703 C.ar    1  UNL1        0.0535
     11 C          62.2845   87.1054    9.7832 C.ar    1  UNL1        0.0068
     12 C          61.9888   86.0426    8.7670 C.ar    1  UNL1        0.0298
     13 C          60.7415   86.1241    7.9377 C.ar    1  UNL1        0.1401
     14 F          60.4458   85.0611    6.9214 F       1  UNL1       -0.2042
     15 C          59.7899   87.2684    8.1248 C.ar    1  UNL1        0.0298
     16 C          60.0857   88.3312    9.1410 C.ar    1  UNL1        0.0068
     17 C          65.8716   92.5306   12.4486 C.3     1  UNL1        0.1366
     18 C          66.6615   92.4840   13.7229 C.ar    1  UNL1        0.0012
     19 C          66.0623   93.0037   14.9960 C.ar    1  UNL1       -0.0023
     20 C          66.8522   92.9571   16.2704 C.ar    1  UNL1       -0.0003
     21 C          68.2411   92.3907   16.2717 C.ar    1  UNL1       -0.0000
     22 C          68.8402   91.8709   14.9985 C.ar    1  UNL1       -0.0003
     23 C          68.0504   91.9176   13.7241 C.ar    1  UNL1       -0.0023
     24 C          66.4457   93.1987   11.2344 C.ar    1  UNL1        0.1026
     25 C          67.4232   92.4639   10.3657 C.ar    1  UNL1        0.0201
     26 C          67.9972   93.1320    9.1516 C.ar    1  UNL1        0.0238
     27 C          67.5937   94.5349    8.8061 C.ar    1  UNL1        0.1222
     28 N          66.6163   95.2696    9.6749 N.ar    1  UNL1       -0.1466
     29 N          66.0422   94.6015   10.8890 N.ar    1  UNL1       -0.1503
@<TRIPOS>BOND
     1     1     2    2
     2     2     5    1
     3     5     6    1
     4     6     7   am
     5     7     8    2
     6     7    10    1
     7    10    11   ar
     8    11    12   ar
     9    12    13   ar
    10    13    14    1
    11    13    15   ar
    12    15    16   ar
    13     2     3   am
    14     3    17    1
    15    17    18    1
    16    18    19   ar
    17    19    20   ar
    18    20    21   ar
    19    21    22   ar
    20    22    23   ar
    21    17    24    1
    22    24    25   ar
    23    25    26   ar
    24    26    27   ar
    25    27    28   ar
    26    28    29   ar
    27    16    10   ar
    28    23    18   ar
    29    29    24   ar
    30     6     9    1
    31     3     4    1
@<TRIPOS>MOLECULE
*****
 29 31 0 0 0
SMALL
GASTEIGER

@<TRIPOS>ATOM
      1 O          64.0258   87.1216   13.4430 O.2     1  UNL1       -0.2732
      2 C          63.1503   88.1062   12.7260 C.2     1  UNL1        0.2430
      3 N          62.3191   87.6604   11.5597 N.am    1  UNL1       -0.2960
      4 H          61.7445   88.3067   11.0891 H       1  UNL1        0.1501
      5 C          63.1062   89.5366   13.1752 C.3     1  UNL1        0.1759
      6 N          64.2536   90.1156   13.9488 N.am    1  UNL1       -0.2931
      7 C          65.0508   91.2482   13.3730 C.2     1  UNL1        0.2462
      8 O          64.7008   91.8018   12.0236 O.2     1  UNL1       -0.2701
      9 H          64.4833   89.7522   14.8345 H       1  UNL1        0.1502
     10 C          66.1982   91.8271   14.1466 C.ar    1  UNL1        0.0535
     11 C          67.5640   91.8882   13.5295 C.ar    1  UNL1        0.0068
     12 C          68.7113   92.4671   14.3031 C.ar    1  UNL1        0.0298
     13 C          68.4928   92.9850   15.6938 C.ar    1  UNL1        0.1401
     14 F          69.6402   93.5640   16.4674 F       1  UNL1       -0.2042
     15 C          67.1270   92.9240   16.3109 C.ar    1  UNL1        0.0298
     16 C          65.9797   92.3450   15.5373 C.ar    1  UNL1        0.0068
     17 C          62.3632   86.2299   11.1104 C.3     1  UNL1        0.1366
     18 C          62.0329   85.8794    9.6899 C.ar    1  UNL1        0.0012
     19 C          60.6789   86.2049    9.1326 C.ar    1  UNL1       -0.0023
     20 C          60.3485   85.8544    7.7119 C.ar    1  UNL1       -0.0003
     21 C          61.3722   85.1785    6.8487 C.ar    1  UNL1       -0.0000
     22 C          62.7262   84.8530    7.4061 C.ar    1  UNL1       -0.0003
     23 C          63.0566   85.2034    8.8267 C.ar    1  UNL1       -0.0023
     24 C          62.7377   85.1499   12.0817 C.ar    1  UNL1        0.1026
     25 C          63.8648   84.2127   11.7634 C.ar    1  UNL1        0.0201
     26 C          64.2393   83.1328   12.7347 C.ar    1  UNL1        0.0238
     27 C          63.4866   82.9900   14.0244 C.ar    1  UNL1        0.1222
     28 N          62.3596   83.9272   14.3427 N.ar    1  UNL1       -0.1466
     29 N          61.9851   85.0072   13.3714 N.ar    1  UNL1       -0.1503
@<TRIPOS>BOND
     1     1     2    2
     2     2     5    1
     3     5     6    1
     4     6     7   am
     5     7     8    2
     6     7    10    1
     7    10    11   ar
     8    11    12   ar
     9    12    13   ar
    10    13    14    1
    11    13    15   ar
    12    15    16   ar
    13     2     3   am
    14     3    17    1
    15    17    18    1
    16    18    19   ar
    17    19    20   ar
    18    20    21   ar
    19    21    22   ar
    20    22    23   ar
    21    17    24    1
    22    24    25   ar
    23    25    26   ar
    24    26    27   ar
    25    27    28   ar
    26    28    29   ar
    27    16    10   ar
    28    23    18   ar
    29    29    24   ar
    30     6     9    1
    31     3     4    1
@<TRIPOS>MOLECULE
*****
 29 31 0 0 0
SMALL
GASTEIGER

@<TRIPOS>ATOM
      1 O          65.3067   90.8879   14.1363 O.2     1  UNL1       -0.2732
      2 C          64.3496   91.1734   13.0171 C.2     1  UNL1        0.2430
      3 N          64.6844   92.2155   11.9915 N.am    1  UNL1       -0.2960
      4 H          64.0562   92.4028   11.2569 H       1  UNL1        0.1501
      5 C          63.0578   90.4168   12.9235 C.3     1  UNL1        0.1759
      6 N          62.8523   89.4168   11.8245 N.am    1  UNL1       -0.2931
      7 C          61.4708   89.1435   11.3078 C.2     1  UNL1        0.2462
      8 O          60.2949   89.8703   11.8902 O.2     1  UNL1       -0.2701
      9 H          63.6240   88.9398   11.4422 H       1  UNL1        0.1502
     10 C          61.2652   88.1435   10.2088 C.ar    1  UNL1        0.0535
     11 C          60.1630   88.3418    9.2109 C.ar    1  UNL1        0.0068
     12 C          59.9575   87.3418    8.1120 C.ar    1  UNL1        0.0298
     13 C          60.8541   86.1436    8.0109 C.ar    1  UNL1        0.1401
     14 F          60.6485   85.1436    6.9118 F       1  UNL1       -0.2042
     15 C          61.9564   85.9453    9.0087 C.ar    1  UNL1        0.0298
     16 C          62.1619   86.9453   10.1077 C.ar    1  UNL1        0.0068
     17 C          65.9762   92.9721   12.0850 C.3     1  UNL1        0.1366
     18 C          66.8456   92.8247   13.2984 C.ar    1  UNL1        0.0012
     19 C          68.0208   91.8931   13.2703 C.ar    1  UNL1       -0.0023
     20 C          68.8902   91.7456   14.4838 C.ar    1  UNL1       -0.0003
     21 C          68.5843   92.5299   15.7253 C.ar    1  UNL1       -0.0000
     22 C          67.4090   93.4616   15.7534 C.ar    1  UNL1       -0.0003
     23 C          66.5397   93.6090   14.5400 C.ar    1  UNL1       -0.0023
     24 C          66.3986   93.8762   10.9651 C.ar    1  UNL1        0.1026
     25 C          65.6425   95.1441   10.6989 C.ar    1  UNL1        0.0201
     26 C          66.0649   96.0482    9.5790 C.ar    1  UNL1        0.0238
     27 C          67.2434   95.6843    8.7252 C.ar    1  UNL1        0.1222
     28 N          67.9995   94.4165    8.9914 N.ar    1  UNL1       -0.1466
     29 N          67.5770   93.5124   10.1113 N.ar    1  UNL1       -0.1503
@<TRIPOS>BOND
     1     1     2    2
     2     2     5    1
     3     5     6    1
     4     6     7   am
     5     7     8    2
     6     7    10    1
     7    10    11   ar
     8    11    12   ar
     9    12    13   ar
    10    13    14    1
    11    13    15   ar
    12    15    16   ar
    13     2     3   am
    14     3    17    1
    15    17    18    1
    16    18    19   ar
    17    19    20   ar
    18    20    21   ar
    19    21    22   ar
    20    22    23   ar
    21    17    24    1
    22    24    25   ar
    23    25    26   ar
    24    26    27   ar
    25    27    28   ar
    26    28    29   ar
    27    16    10   ar
    28    23    18   ar
    29    29    24   ar
    30     6     9    1
    31     3     4    1
