@<TRIPOS>MOLECULE
*****
 35 38 0 0 0
SMALL
GASTEIGER

@<TRIPOS>ATOM
      1 C          60.7873   88.7864    9.6366 C.ar    1  UNL1        0.0908
      2 C          59.7815   88.2451   10.6090 C.ar    1  UNL1        0.1363
      3 N          60.5039   87.3530   11.5746 N.ar    1  UNL1       -0.1660
      4 N          61.9561   87.3430   11.1990 N.ar    1  UNL1       -0.2436
      5 C          62.1312   88.2289   10.0013 C.ar    1  UNL1        0.1117
      6 O          59.1642   87.8455    7.2955 O.2     1  UNL1       -0.2680
      7 C          59.6881   89.2507    7.3287 C.2     1  UNL1        0.2706
      8 N          60.4996   89.7211    8.4993 N.am    1  UNL1       -0.2766
      9 H          60.8435   90.6434    8.5211 H       1  UNL1        0.1553
     10 C          59.4004   90.1854    6.1914 C.ar    1  UNL1        0.1764
     11 C          60.4195   90.8172    5.2900 C.ar    1  UNL1        0.0688
     12 C          59.6921   91.6746    4.2972 C.ar    1  UNL1        0.1945
     13 O          58.2235   91.5728    4.5850 O.2     1  UNL1       -0.3517
     14 N          58.0432   90.6524    5.7556 N.ar    1  UNL1       -0.0722
     15 C          60.3227   92.4906    3.2079 C.ar    1  UNL1        0.1184
     16 C          61.7864   92.3458    2.9140 C.ar    1  UNL1        0.0223
     17 C          62.4170   93.1618    1.8247 C.ar    1  UNL1        0.0032
     18 C          61.5837   94.1226    1.0294 C.ar    1  UNL1        0.0207
     19 C          60.1201   94.2674    1.3233 C.ar    1  UNL1        0.0989
     20 N          59.4894   93.4514    2.4126 N.ar    1  UNL1       -0.2407
     21 C          63.0424   86.5809   11.8983 C.3     1  UNL1        0.1538
     22 C          62.8487   85.1302   12.2271 C.ar    1  UNL1        0.0060
     23 C          62.6219   84.7070   13.6481 C.ar    1  UNL1       -0.0024
     24 C          62.4282   83.2564   13.9769 C.ar    1  UNL1        0.0036
     25 C          62.4613   82.2289   12.8845 C.ar    1  UNL1        0.0714
     26 C          62.6880   82.6521   11.4635 C.ar    1  UNL1        0.0074
     27 C          62.8817   84.1028   11.1347 C.ar    1  UNL1        0.0693
     28 C          62.2676   80.7782   13.2133 C.3     1  UNL1        0.4186
     29 F          62.0739   79.3276   13.5420 F       1  UNL1       -0.1659
     30 F          61.7300   81.1556   14.5618 F       1  UNL1       -0.1659
     31 F          62.8052   80.4008   11.8648 F       1  UNL1       -0.1659
     32 C          63.1084   84.5260    9.7136 C.3     1  UNL1        0.4183
     33 F          63.3352   84.9492    8.2925 F       1  UNL1       -0.1659
     34 F          64.5148   84.0090    9.7841 F       1  UNL1       -0.1659
     35 F          61.7021   85.0429    9.6432 F       1  UNL1       -0.1659
@<TRIPOS>BOND
     1     6     7    2
     2     7     8   am
     3     8     1    1
     4     1     2   ar
     5     2     3   ar
     6     3     4   ar
     7     4    21    1
     8    21    22    1
     9    22    23   ar
    10    23    24   ar
    11    24    25   ar
    12    25    28    1
    13    28    29    1
    14    28    30    1
    15    28    31    1
    16    25    26   ar
    17    26    27   ar
    18    27    32    1
    19    32    33    1
    20    32    34    1
    21    32    35    1
    22     4     5   ar
    23     7    10    1
    24    10    11   ar
    25    11    12   ar
    26    12    15    1
    27    15    16   ar
    28    16    17   ar
    29    17    18   ar
    30    18    19   ar
    31    19    20   ar
    32    12    13   ar
    33    13    14   ar
    34     5     1   ar
    35    14    10   ar
    36    27    22   ar
    37    20    15   ar
    38     8     9    1
@<TRIPOS>MOLECULE
*****
 35 38 0 0 0
SMALL
GASTEIGER

@<TRIPOS>ATOM
      1 C          60.8343   88.7591    9.6930 C.ar    1  UNL1        0.0908
      2 C          59.8004   88.1887   10.6182 C.ar    1  UNL1        0.1363
      3 N          60.5029   87.3200   11.6191 N.ar    1  UNL1       -0.1660
      4 N          61.9709   87.3535   11.3126 N.ar    1  UNL1       -0.2436
      5 C          62.1757   88.2429   10.1222 C.ar    1  UNL1        0.1117
      6 O          59.1020   87.8622    7.4137 O.2     1  UNL1       -0.2680
      7 C          59.7066   89.2350    7.4013 C.2     1  UNL1        0.2706
      8 N          60.5727   89.6834    8.5410 N.am    1  UNL1       -0.2766
      9 H          60.9694   90.5844    8.5328 H       1  UNL1        0.1553
     10 C          59.4449   90.1592    6.2492 C.ar    1  UNL1        0.1764
     11 C          60.4859   90.8174    5.3930 C.ar    1  UNL1        0.0688
     12 C          59.7807   91.6525    4.3657 C.ar    1  UNL1        0.1945
     13 O          58.3039   91.5104    4.5870 O.2     1  UNL1       -0.3517
     14 N          58.0964   90.5876    5.7511 N.ar    1  UNL1       -0.0722
     15 C          60.4371   92.4837    3.3035 C.ar    1  UNL1        0.1184
     16 C          61.8610   92.2161    2.9148 C.ar    1  UNL1        0.0223
     17 C          62.5174   93.0474    1.8527 C.ar    1  UNL1        0.0032
     18 C          61.7499   94.1461    1.1791 C.ar    1  UNL1        0.0207
     19 C          60.3261   94.4137    1.5677 C.ar    1  UNL1        0.0989
     20 N          59.6696   93.5825    2.6299 N.ar    1  UNL1       -0.2407
     21 C          63.0454   86.6255   12.0644 C.3     1  UNL1        0.1538
     22 C          62.9250   85.1495   12.3036 C.ar    1  UNL1        0.0060
     23 C          62.5556   84.2344   11.1740 C.ar    1  UNL1       -0.0024
     24 C          62.4352   82.7585   11.4131 C.ar    1  UNL1        0.0036
     25 C          62.6842   82.1978   12.7819 C.ar    1  UNL1        0.0714
     26 C          63.0536   83.1129   13.9115 C.ar    1  UNL1        0.0074
     27 C          63.1740   84.5888   13.6724 C.ar    1  UNL1        0.0693
     28 C          62.5638   80.7218   13.0211 C.3     1  UNL1        0.4186
     29 F          62.4434   79.2459   13.2602 F       1  UNL1       -0.1659
     30 F          62.8848   80.4620   11.5791 F       1  UNL1       -0.1659
     31 F          62.2427   80.9816   14.4631 F       1  UNL1       -0.1659
     32 C          63.5434   85.5039   14.8020 C.3     1  UNL1        0.4183
     33 F          63.9127   86.4191   15.9316 F       1  UNL1       -0.1659
     34 F          62.2112   85.2503   15.4431 F       1  UNL1       -0.1659
     35 F          64.8755   85.7576   14.1609 F       1  UNL1       -0.1659
@<TRIPOS>BOND
     1     6     7    2
     2     7     8   am
     3     8     1    1
     4     1     2   ar
     5     2     3   ar
     6     3     4   ar
     7     4    21    1
     8    21    22    1
     9    22    23   ar
    10    23    24   ar
    11    24    25   ar
    12    25    28    1
    13    28    29    1
    14    28    30    1
    15    28    31    1
    16    25    26   ar
    17    26    27   ar
    18    27    32    1
    19    32    33    1
    20    32    34    1
    21    32    35    1
    22     4     5   ar
    23     7    10    1
    24    10    11   ar
    25    11    12   ar
    26    12    15    1
    27    15    16   ar
    28    16    17   ar
    29    17    18   ar
    30    18    19   ar
    31    19    20   ar
    32    12    13   ar
    33    13    14   ar
    34     5     1   ar
    35    14    10   ar
    36    27    22   ar
    37    20    15   ar
    38     8     9    1
@<TRIPOS>MOLECULE
*****
 35 38 0 0 0
SMALL
GASTEIGER

@<TRIPOS>ATOM
      1 C          63.8974   88.7185   15.6796 C.ar    1  UNL1        0.0908
      2 C          62.9880   89.5160   16.5669 C.ar    1  UNL1        0.1363
      3 N          63.3027   90.9689   16.3672 N.ar    1  UNL1       -0.1660
      4 N          64.4066   91.0695   15.3565 N.ar    1  UNL1       -0.2436
      5 C          64.7741   89.6787   14.9316 C.ar    1  UNL1        0.1117
      6 O          63.5319   87.4190   13.0005 O.2     1  UNL1       -0.2680
      7 C          63.7424   86.5737   14.2217 C.2     1  UNL1        0.2706
      8 N          63.9252   87.2235   15.5612 N.am    1  UNL1       -0.2766
      9 H          64.0633   86.6687   16.3627 H       1  UNL1        0.1553
     10 C          63.7702   85.0786   14.1032 C.ar    1  UNL1        0.1764
     11 C          63.3922   84.2833   12.8888 C.ar    1  UNL1        0.0688
     12 C          63.5692   82.8296   13.2132 C.ar    1  UNL1        0.1945
     13 O          64.0565   82.7264   14.6281 O.2     1  UNL1       -0.3517
     14 N          64.1808   84.1163   15.1781 N.ar    1  UNL1       -0.0722
     15 C          63.3051   81.6807   12.2857 C.ar    1  UNL1        0.1184
     16 C          63.5128   81.8457   10.8093 C.ar    1  UNL1        0.0223
     17 C          63.2488   80.6969    9.8817 C.ar    1  UNL1        0.0032
     18 C          62.7770   79.3830   10.4305 C.ar    1  UNL1        0.0207
     19 C          62.5693   79.2180   11.9068 C.ar    1  UNL1        0.0989
     20 N          62.8333   80.3669   12.8344 N.ar    1  UNL1       -0.2407
     21 C          65.0330   92.3381   14.8582 C.3     1  UNL1        0.1538
     22 C          65.7982   92.3403   13.5681 C.ar    1  UNL1        0.0060
     23 C          65.0650   92.4104   12.2613 C.ar    1  UNL1       -0.0024
     24 C          65.8302   92.4127   10.9712 C.ar    1  UNL1        0.0036
     25 C          67.3285   92.3449   10.9878 C.ar    1  UNL1        0.0714
     26 C          68.0617   92.2748   12.2945 C.ar    1  UNL1        0.0074
     27 C          67.2965   92.2725   13.5847 C.ar    1  UNL1        0.0693
     28 C          68.0938   92.3471    9.6976 C.3     1  UNL1        0.4186
     29 F          68.8590   92.3493    8.4075 F       1  UNL1       -0.1659
     30 F          68.0331   90.8489    9.6591 F       1  UNL1       -0.1659
     31 F          68.1544   93.8454    9.7362 F       1  UNL1       -0.1659
     32 C          68.0297   92.2024   14.8914 C.3     1  UNL1        0.4183
     33 F          68.7629   92.1323   16.1981 F       1  UNL1       -0.1659
     34 F          68.2245   93.6894   14.8618 F       1  UNL1       -0.1659
     35 F          67.8349   90.7154   14.9209 F       1  UNL1       -0.1659
@<TRIPOS>BOND
     1     6     7    2
     2     7     8   am
     3     8     1    1
     4     1     2   ar
     5     2     3   ar
     6     3     4   ar
     7     4    21    1
     8    21    22    1
     9    22    23   ar
    10    23    24   ar
    11    24    25   ar
    12    25    28    1
    13    28    29    1
    14    28    30    1
    15    28    31    1
    16    25    26   ar
    17    26    27   ar
    18    27    32    1
    19    32    33    1
    20    32    34    1
    21    32    35    1
    22     4     5   ar
    23     7    10    1
    24    10    11   ar
    25    11    12   ar
    26    12    15    1
    27    15    16   ar
    28    16    17   ar
    29    17    18   ar
    30    18    19   ar
    31    19    20   ar
    32    12    13   ar
    33    13    14   ar
    34     5     1   ar
    35    14    10   ar
    36    27    22   ar
    37    20    15   ar
    38     8     9    1
@<TRIPOS>MOLECULE
*****
 35 38 0 0 0
SMALL
GASTEIGER

@<TRIPOS>ATOM
      1 C          62.9114   88.7255   12.0814 C.ar    1  UNL1        0.0908
      2 C          63.5333   89.7679   12.9628 C.ar    1  UNL1        0.1363
      3 N          64.2560   89.0647   14.0733 N.ar    1  UNL1       -0.1660
      4 N          64.0808   87.5877   13.8783 N.ar    1  UNL1       -0.2436
      5 C          63.2498   87.3781   12.6472 C.ar    1  UNL1        0.1117
      6 O          60.8890   86.7057   11.1700 O.2     1  UNL1       -0.2680
      7 C          61.0834   87.9751   10.3946 C.2     1  UNL1        0.2706
      8 N          62.0945   88.9849   10.8504 N.am    1  UNL1       -0.2766
      9 H          62.2221   89.8180   10.3415 H       1  UNL1        0.1553
     10 C          60.2664   88.2345    9.1636 C.ar    1  UNL1        0.1764
     11 C          60.3392   89.4580    8.2989 C.ar    1  UNL1        0.0688
     12 C          59.3511   89.2957    7.1821 C.ar    1  UNL1        0.1945
     13 O          58.6677   87.9718    7.3565 O.2     1  UNL1       -0.3517
     14 N          59.2334   87.3160    8.5812 N.ar    1  UNL1       -0.0722
     15 C          59.0920   90.2837    6.0836 C.ar    1  UNL1        0.1184
     16 C          60.2363   90.8365    5.2867 C.ar    1  UNL1        0.0223
     17 C          59.9771   91.8245    4.1882 C.ar    1  UNL1        0.0032
     18 C          58.5737   92.2598    3.8867 C.ar    1  UNL1        0.0207
     19 C          57.4295   91.7071    4.6836 C.ar    1  UNL1        0.0989
     20 N          57.6886   90.7190    5.7821 N.ar    1  UNL1       -0.2407
     21 C          64.6387   86.5097   14.7595 C.3     1  UNL1        0.1538
     22 C          64.1718   85.0932   14.5989 C.ar    1  UNL1        0.0060
     23 C          64.7632   84.2256   13.5276 C.ar    1  UNL1       -0.0024
     24 C          64.2964   82.8092   13.3670 C.ar    1  UNL1        0.0036
     25 C          63.2384   82.2604   14.2776 C.ar    1  UNL1        0.0714
     26 C          62.6470   83.1280   15.3488 C.ar    1  UNL1        0.0074
     27 C          63.1138   84.5444   15.5095 C.ar    1  UNL1        0.0693
     28 C          62.7715   80.8439   14.1169 C.3     1  UNL1        0.4186
     29 F          62.3048   79.4275   13.9563 F       1  UNL1       -0.1659
     30 F          64.1888   80.4010   13.9044 F       1  UNL1       -0.1659
     31 F          61.3543   81.2868   14.3294 F       1  UNL1       -0.1659
     32 C          62.5224   85.4120   16.5807 C.3     1  UNL1        0.4183
     33 F          61.9311   86.2797   17.6520 F       1  UNL1       -0.1659
     34 F          63.8780   85.5665   17.2039 F       1  UNL1       -0.1659
     35 F          61.1668   85.2576   15.9575 F       1  UNL1       -0.1659
@<TRIPOS>BOND
     1     6     7    2
     2     7     8   am
     3     8     1    1
     4     1     2   ar
     5     2     3   ar
     6     3     4   ar
     7     4    21    1
     8    21    22    1
     9    22    23   ar
    10    23    24   ar
    11    24    25   ar
    12    25    28    1
    13    28    29    1
    14    28    30    1
    15    28    31    1
    16    25    26   ar
    17    26    27   ar
    18    27    32    1
    19    32    33    1
    20    32    34    1
    21    32    35    1
    22     4     5   ar
    23     7    10    1
    24    10    11   ar
    25    11    12   ar
    26    12    15    1
    27    15    16   ar
    28    16    17   ar
    29    17    18   ar
    30    18    19   ar
    31    19    20   ar
    32    12    13   ar
    33    13    14   ar
    34     5     1   ar
    35    14    10   ar
    36    27    22   ar
    37    20    15   ar
    38     8     9    1
@<TRIPOS>MOLECULE
*****
 35 38 0 0 0
SMALL
GASTEIGER

@<TRIPOS>ATOM
      1 C          62.1178   88.4002   11.3570 C.ar    1  UNL1        0.0908
      2 C          60.9711   89.2507   10.8966 C.ar    1  UNL1        0.1363
      3 N          61.4538   90.6678   10.8022 N.ar    1  UNL1       -0.1660
      4 N          62.8987   90.6931   11.2043 N.ar    1  UNL1       -0.2436
      5 C          63.3091   89.2916   11.5472 C.ar    1  UNL1        0.1117
      6 O          63.8354   87.1679   13.4858 O.2     1  UNL1       -0.2680
      7 C          62.9385   86.3022   12.6513 C.2     1  UNL1        0.2706
      8 N          62.0797   86.9184   11.5869 N.am    1  UNL1       -0.2766
      9 H          61.4911   86.3502   11.0393 H       1  UNL1        0.1553
     10 C          62.9006   84.8204   12.8812 C.ar    1  UNL1        0.1764
     11 C          62.8726   83.7636   11.8171 C.ar    1  UNL1        0.0688
     12 C          62.8386   82.4253   12.4938 C.ar    1  UNL1        0.1945
     13 O          62.8457   82.6551   13.9761 O.2     1  UNL1       -0.3517
     14 N          62.8840   84.1353   14.2155 N.ar    1  UNL1       -0.0722
     15 C          62.8038   81.0915   11.8085 C.ar    1  UNL1        0.1184
     16 C          63.0517   81.0002   10.3320 C.ar    1  UNL1        0.0223
     17 C          63.0168   79.6663    9.6467 C.ar    1  UNL1        0.0032
     18 C          62.7340   78.4238   10.4379 C.ar    1  UNL1        0.0207
     19 C          62.4861   78.5151   11.9144 C.ar    1  UNL1        0.0989
     20 N          62.5210   79.8489   12.5998 N.ar    1  UNL1       -0.2407
     21 C          63.7788   91.9067   11.2546 C.3     1  UNL1        0.1538
     22 C          64.8413   92.0196   12.3075 C.ar    1  UNL1        0.0060
     23 C          64.6218   91.4143   13.6623 C.ar    1  UNL1       -0.0024
     24 C          65.6842   91.5271   14.7152 C.ar    1  UNL1        0.0036
     25 C          66.9660   92.2453   14.4132 C.ar    1  UNL1        0.0714
     26 C          67.1854   92.8506   13.0584 C.ar    1  UNL1        0.0074
     27 C          66.1230   92.7377   12.0056 C.ar    1  UNL1        0.0693
     28 C          68.0285   92.3582   15.4661 C.3     1  UNL1        0.4186
     29 F          69.0909   92.4711   16.5189 F       1  UNL1       -0.1659
     30 F          69.0873   92.2452   14.4097 F       1  UNL1       -0.1659
     31 F          66.9697   92.4712   16.5225 F       1  UNL1       -0.1659
     32 C          66.3425   93.3430   10.6508 C.3     1  UNL1        0.4183
     33 F          66.5619   93.9483    9.2960 F       1  UNL1       -0.1659
     34 F          65.6793   94.6082   11.1086 F       1  UNL1       -0.1659
     35 F          67.0056   92.0779   10.1929 F       1  UNL1       -0.1659
@<TRIPOS>BOND
     1     6     7    2
     2     7     8   am
     3     8     1    1
     4     1     2   ar
     5     2     3   ar
     6     3     4   ar
     7     4    21    1
     8    21    22    1
     9    22    23   ar
    10    23    24   ar
    11    24    25   ar
    12    25    28    1
    13    28    29    1
    14    28    30    1
    15    28    31    1
    16    25    26   ar
    17    26    27   ar
    18    27    32    1
    19    32    33    1
    20    32    34    1
    21    32    35    1
    22     4     5   ar
    23     7    10    1
    24    10    11   ar
    25    11    12   ar
    26    12    15    1
    27    15    16   ar
    28    16    17   ar
    29    17    18   ar
    30    18    19   ar
    31    19    20   ar
    32    12    13   ar
    33    13    14   ar
    34     5     1   ar
    35    14    10   ar
    36    27    22   ar
    37    20    15   ar
    38     8     9    1
@<TRIPOS>MOLECULE
*****
 35 38 0 0 0
SMALL
GASTEIGER

@<TRIPOS>ATOM
      1 C          60.7513   89.2773    9.4732 C.ar    1  UNL1        0.0908
      2 C          59.9950   88.0648    9.9290 C.ar    1  UNL1        0.1363
      3 N          60.6842   87.5183   11.1441 N.ar    1  UNL1       -0.1660
      4 N          61.8665   88.3930   11.4391 N.ar    1  UNL1       -0.2436
      5 C          61.9080   89.4802   10.4064 C.ar    1  UNL1        0.1117
      6 O          59.2145   88.1203    7.1710 O.2     1  UNL1       -0.2680
      7 C          59.6424   89.5577    7.1404 C.2     1  UNL1        0.2706
      8 N          60.4108   90.1362    8.2915 N.am    1  UNL1       -0.2766
      9 H          60.6916   91.0796    8.2714 H       1  UNL1        0.1553
     10 C          59.3018   90.4165    5.9587 C.ar    1  UNL1        0.1764
     11 C          60.2819   91.0311    5.0037 C.ar    1  UNL1        0.0688
     12 C          59.5073   91.8059    3.9793 C.ar    1  UNL1        0.1945
     13 O          58.0484   91.6703    4.3010 O.2     1  UNL1       -0.3517
     14 N          57.9215   90.8116    5.5244 N.ar    1  UNL1       -0.0722
     15 C          60.0893   92.5804    2.8341 C.ar    1  UNL1        0.1184
     16 C          61.5766   92.6434    2.6503 C.ar    1  UNL1        0.0223
     17 C          62.1586   93.4179    1.5051 C.ar    1  UNL1        0.0032
     18 C          61.2533   94.1294    0.5438 C.ar    1  UNL1        0.0207
     19 C          59.7660   94.0663    0.7276 C.ar    1  UNL1        0.0989
     20 N          59.1839   93.2918    1.8728 N.ar    1  UNL1       -0.2407
     21 C          62.8369   88.2124   12.5685 C.3     1  UNL1        0.1538
     22 C          63.6781   89.3669   13.0265 C.ar    1  UNL1        0.0060
     23 C          63.9414   90.5170   12.1003 C.ar    1  UNL1       -0.0024
     24 C          64.7825   91.6714   12.5583 C.ar    1  UNL1        0.0036
     25 C          65.3603   91.6757   13.9425 C.ar    1  UNL1        0.0714
     26 C          65.0970   90.5256   14.8687 C.ar    1  UNL1        0.0074
     27 C          64.2559   89.3712   14.4108 C.ar    1  UNL1        0.0693
     28 C          66.2014   92.8302   14.4006 C.3     1  UNL1        0.4186
     29 F          67.0425   93.9846   14.8586 F       1  UNL1       -0.1659
     30 F          65.7018   92.6382   15.8018 F       1  UNL1       -0.1659
     31 F          66.7011   93.0222   12.9993 F       1  UNL1       -0.1659
     32 C          63.9925   88.2211   15.3370 C.3     1  UNL1        0.4183
     33 F          63.7292   87.0709   16.2632 F       1  UNL1       -0.1659
     34 F          63.0094   89.0596   16.0987 F       1  UNL1       -0.1659
     35 F          64.9757   87.3825   14.5752 F       1  UNL1       -0.1659
@<TRIPOS>BOND
     1     6     7    2
     2     7     8   am
     3     8     1    1
     4     1     2   ar
     5     2     3   ar
     6     3     4   ar
     7     4    21    1
     8    21    22    1
     9    22    23   ar
    10    23    24   ar
    11    24    25   ar
    12    25    28    1
    13    28    29    1
    14    28    30    1
    15    28    31    1
    16    25    26   ar
    17    26    27   ar
    18    27    32    1
    19    32    33    1
    20    32    34    1
    21    32    35    1
    22     4     5   ar
    23     7    10    1
    24    10    11   ar
    25    11    12   ar
    26    12    15    1
    27    15    16   ar
    28    16    17   ar
    29    17    18   ar
    30    18    19   ar
    31    19    20   ar
    32    12    13   ar
    33    13    14   ar
    34     5     1   ar
    35    14    10   ar
    36    27    22   ar
    37    20    15   ar
    38     8     9    1
@<TRIPOS>MOLECULE
*****
 35 38 0 0 0
SMALL
GASTEIGER

@<TRIPOS>ATOM
      1 C          60.1827   91.5895    4.4618 C.ar    1  UNL1        0.0908
      2 C          58.7407   91.9539    4.6565 C.ar    1  UNL1        0.1363
      3 N          58.1509   90.9970    5.6498 N.ar    1  UNL1       -0.1660
      4 N          59.2284   90.0414    6.0690 N.ar    1  UNL1       -0.2436
      5 C          60.4841   90.4076    5.3348 C.ar    1  UNL1        0.1117
      6 O          59.2481   92.6995    1.8360 O.2     1  UNL1       -0.2680
      7 C          60.6857   92.8401    2.2407 C.2     1  UNL1        0.2706
      8 N          61.1530   92.2851    3.5536 N.am    1  UNL1       -0.2766
      9 H          62.0965   92.3774    3.8192 H       1  UNL1        0.1553
     10 C          61.6559   93.5356    1.3324 C.ar    1  UNL1        0.1764
     11 C          61.9188   93.1940   -0.1043 C.ar    1  UNL1        0.0688
     12 C          62.9588   94.1421   -0.6233 C.ar    1  UNL1        0.1945
     13 O          63.3387   95.0697    0.4926 O.2     1  UNL1       -0.3517
     14 N          62.5335   94.6948    1.7013 N.ar    1  UNL1       -0.0722
     15 C          63.5204   94.1596   -2.0141 C.ar    1  UNL1        0.1184
     16 C          63.3134   92.9831   -2.9214 C.ar    1  UNL1        0.0223
     17 C          63.8750   93.0006   -4.3122 C.ar    1  UNL1        0.0032
     18 C          64.6435   94.1945   -4.7957 C.ar    1  UNL1        0.0207
     19 C          64.8505   95.3709   -3.8886 C.ar    1  UNL1        0.0989
     20 N          64.2889   95.3535   -2.4977 N.ar    1  UNL1       -0.2407
     21 C          59.0769   88.9170    7.0502 C.3     1  UNL1        0.1538
     22 C          60.0109   88.8106    8.2191 C.ar    1  UNL1        0.0060
     23 C          60.3919   90.0403    8.9890 C.ar    1  UNL1       -0.0024
     24 C          61.3259   89.9339   10.1579 C.ar    1  UNL1        0.0036
     25 C          61.8787   88.5978   10.5569 C.ar    1  UNL1        0.0714
     26 C          61.4977   87.3682    9.7871 C.ar    1  UNL1        0.0074
     27 C          60.5637   87.4745    8.6182 C.ar    1  UNL1        0.0693
     28 C          62.8127   88.4914   11.7259 C.3     1  UNL1        0.4186
     29 F          63.7467   88.3850   12.8948 F       1  UNL1       -0.1659
     30 F          62.8320   89.9864   11.8466 F       1  UNL1       -0.1659
     31 F          62.7935   86.9964   11.6052 F       1  UNL1       -0.1659
     32 C          60.1826   86.2449    7.8483 C.3     1  UNL1        0.4183
     33 F          59.8015   85.0152    7.0785 F       1  UNL1       -0.1659
     34 F          58.7474   86.4480    8.2343 F       1  UNL1       -0.1659
     35 F          61.6178   86.0417    7.4624 F       1  UNL1       -0.1659
@<TRIPOS>BOND
     1     6     7    2
     2     7     8   am
     3     8     1    1
     4     1     2   ar
     5     2     3   ar
     6     3     4   ar
     7     4    21    1
     8    21    22    1
     9    22    23   ar
    10    23    24   ar
    11    24    25   ar
    12    25    28    1
    13    28    29    1
    14    28    30    1
    15    28    31    1
    16    25    26   ar
    17    26    27   ar
    18    27    32    1
    19    32    33    1
    20    32    34    1
    21    32    35    1
    22     4     5   ar
    23     7    10    1
    24    10    11   ar
    25    11    12   ar
    26    12    15    1
    27    15    16   ar
    28    16    17   ar
    29    17    18   ar
    30    18    19   ar
    31    19    20   ar
    32    12    13   ar
    33    13    14   ar
    34     5     1   ar
    35    14    10   ar
    36    27    22   ar
    37    20    15   ar
    38     8     9    1
@<TRIPOS>MOLECULE
*****
 35 38 0 0 0
SMALL
GASTEIGER

@<TRIPOS>ATOM
      1 C          59.2976   91.8599    4.8703 C.ar    1  UNL1        0.0908
      2 C          57.8120   91.6666    4.9460 C.ar    1  UNL1        0.1363
      3 N          57.5473   90.4047    5.7125 N.ar    1  UNL1       -0.1660
      4 N          58.8692   89.8181    6.1105 N.ar    1  UNL1       -0.2436
      5 C          59.9510   90.7174    5.5900 C.ar    1  UNL1        0.1117
      6 O          58.9802   92.2791    1.9167 O.2     1  UNL1       -0.2680
      7 C          59.8468   93.2057    2.7169 C.2     1  UNL1        0.2706
      8 N          60.0055   92.9961    4.1937 N.am    1  UNL1       -0.2766
      9 H          60.5744   93.6043    4.7189 H       1  UNL1        0.1553
     10 C          60.5547   94.3420    2.0402 C.ar    1  UNL1        0.1764
     11 C          61.8288   94.2441    1.2545 C.ar    1  UNL1        0.0688
     12 C          62.1744   95.6171    0.7591 C.ar    1  UNL1        0.1945
     13 O          61.1140   96.5635    1.2386 O.2     1  UNL1       -0.3517
     14 N          60.1130   95.7754    2.0304 N.ar    1  UNL1       -0.0722
     15 C          63.3704   95.9800   -0.0703 C.ar    1  UNL1        0.1184
     16 C          64.6474   96.3967    0.5972 C.ar    1  UNL1        0.0223
     17 C          65.8435   96.7596   -0.2321 C.ar    1  UNL1        0.0032
     18 C          65.7624   96.7058   -1.7289 C.ar    1  UNL1        0.0207
     19 C          64.4855   96.2891   -2.3964 C.ar    1  UNL1        0.0989
     20 N          63.2893   95.9262   -1.5671 N.ar    1  UNL1       -0.2407
     21 C          59.0735   88.5540    6.8918 C.3     1  UNL1        0.1538
     22 C          60.0008   88.5426    8.0708 C.ar    1  UNL1        0.0060
     23 C          60.2513   89.8057    8.8402 C.ar    1  UNL1       -0.0024
     24 C          61.1785   89.7943   10.0192 C.ar    1  UNL1        0.0036
     25 C          61.8553   88.5199   10.4288 C.ar    1  UNL1        0.0714
     26 C          61.6049   87.2569    9.6594 C.ar    1  UNL1        0.0074
     27 C          60.6776   87.2682    8.4804 C.ar    1  UNL1        0.0693
     28 C          62.7826   88.5085   11.6078 C.3     1  UNL1        0.4186
     29 F          63.7099   88.4971   12.7868 F       1  UNL1       -0.1659
     30 F          62.6728   87.0143   11.6797 F       1  UNL1       -0.1659
     31 F          62.8924   90.0028   11.5359 F       1  UNL1       -0.1659
     32 C          60.4272   86.0052    7.7110 C.3     1  UNL1        0.4183
     33 F          60.1767   84.7421    6.9416 F       1  UNL1       -0.1659
     34 F          61.9049   85.8232    7.5287 F       1  UNL1       -0.1659
     35 F          58.9494   86.1872    7.8932 F       1  UNL1       -0.1659
@<TRIPOS>BOND
     1     6     7    2
     2     7     8   am
     3     8     1    1
     4     1     2   ar
     5     2     3   ar
     6     3     4   ar
     7     4    21    1
     8    21    22    1
     9    22    23   ar
    10    23    24   ar
    11    24    25   ar
    12    25    28    1
    13    28    29    1
    14    28    30    1
    15    28    31    1
    16    25    26   ar
    17    26    27   ar
    18    27    32    1
    19    32    33    1
    20    32    34    1
    21    32    35    1
    22     4     5   ar
    23     7    10    1
    24    10    11   ar
    25    11    12   ar
    26    12    15    1
    27    15    16   ar
    28    16    17   ar
    29    17    18   ar
    30    18    19   ar
    31    19    20   ar
    32    12    13   ar
    33    13    14   ar
    34     5     1   ar
    35    14    10   ar
    36    27    22   ar
    37    20    15   ar
    38     8     9    1
@<TRIPOS>MOLECULE
*****
 35 38 0 0 0
SMALL
GASTEIGER

@<TRIPOS>ATOM
      1 C          63.0176   84.6100    9.6494 C.ar    1  UNL1        0.0908
      2 C          63.9937   83.5927    9.1371 C.ar    1  UNL1        0.1363
      3 N          64.7137   83.0068   10.3153 N.ar    1  UNL1       -0.1660
      4 N          64.1827   83.6620   11.5558 N.ar    1  UNL1       -0.2436
      5 C          63.1345   84.6529   11.1442 C.ar    1  UNL1        0.1117
      6 O          60.9227   86.3047   10.9683 O.2     1  UNL1       -0.2680
      7 C          61.0405   86.2863    9.4729 C.2     1  UNL1        0.2706
      8 N          62.0880   85.4390    8.8135 N.am    1  UNL1       -0.2766
      9 H          62.1653   85.4269    7.8322 H       1  UNL1        0.1553
     10 C          60.1108   87.1153    8.6372 C.ar    1  UNL1        0.1764
     11 C          60.5044   88.2642    7.7567 C.ar    1  UNL1        0.0688
     12 C          59.2612   88.8000    7.1105 C.ar    1  UNL1        0.1945
     13 O          58.0994   87.9822    7.5916 O.2     1  UNL1       -0.3517
     14 N          58.6245   86.9411    8.5352 N.ar    1  UNL1       -0.0722
     15 C          59.1921   89.9513    6.1516 C.ar    1  UNL1        0.1184
     16 C          60.4483   90.4877    5.5318 C.ar    1  UNL1        0.0223
     17 C          60.3792   91.6391    4.5728 C.ar    1  UNL1        0.0032
     18 C          59.0538   92.2540    4.2337 C.ar    1  UNL1        0.0207
     19 C          57.7976   91.7177    4.8534 C.ar    1  UNL1        0.0989
     20 N          57.8667   90.5663    5.8124 N.ar    1  UNL1       -0.2407
     21 C          64.6226   83.3765   12.9611 C.3     1  UNL1        0.1538
     22 C          64.2422   84.3115   14.0707 C.ar    1  UNL1        0.0060
     23 C          65.0031   85.5889   14.2690 C.ar    1  UNL1       -0.0024
     24 C          64.6227   86.5239   15.3785 C.ar    1  UNL1        0.0036
     25 C          63.4815   86.1815   16.2897 C.ar    1  UNL1        0.0714
     26 C          62.7207   84.9041   16.0914 C.ar    1  UNL1        0.0074
     27 C          63.1010   83.9691   14.9819 C.ar    1  UNL1        0.0693
     28 C          63.1011   87.1165   17.3994 C.3     1  UNL1        0.4186
     29 F          62.7207   88.0514   18.5089 F       1  UNL1       -0.1659
     30 F          62.6408   85.9509   18.2236 F       1  UNL1       -0.1659
     31 F          63.5614   88.2820   16.5751 F       1  UNL1       -0.1659
     32 C          62.3401   82.6917   14.7835 C.3     1  UNL1        0.4183
     33 F          61.5793   81.4143   14.5852 F       1  UNL1       -0.1659
     34 F          61.0961   83.4778   14.4930 F       1  UNL1       -0.1659
     35 F          63.5842   81.9056   15.0741 F       1  UNL1       -0.1659
@<TRIPOS>BOND
     1     6     7    2
     2     7     8   am
     3     8     1    1
     4     1     2   ar
     5     2     3   ar
     6     3     4   ar
     7     4    21    1
     8    21    22    1
     9    22    23   ar
    10    23    24   ar
    11    24    25   ar
    12    25    28    1
    13    28    29    1
    14    28    30    1
    15    28    31    1
    16    25    26   ar
    17    26    27   ar
    18    27    32    1
    19    32    33    1
    20    32    34    1
    21    32    35    1
    22     4     5   ar
    23     7    10    1
    24    10    11   ar
    25    11    12   ar
    26    12    15    1
    27    15    16   ar
    28    16    17   ar
    29    17    18   ar
    30    18    19   ar
    31    19    20   ar
    32    12    13   ar
    33    13    14   ar
    34     5     1   ar
    35    14    10   ar
    36    27    22   ar
    37    20    15   ar
    38     8     9    1
