@<TRIPOS>MOLECULE
*****
 23 26 0 0 0
SMALL
GASTEIGER

@<TRIPOS>ATOM
      1 S          60.6683   89.6342   10.6352 S.3     1  UNL1       -0.0692
      2 C          65.9916   91.9965   13.4077 C.2     1  UNL1        0.1223
      3 C          65.6625   91.0018   14.4811 C.2     1  UNL1        0.0343
      4 C          64.4520   90.1263   14.3469 C.2     1  UNL1        0.0232
      5 C          63.5704   90.2455   13.1392 C.2     1  UNL1        0.0975
      6 N          62.3200   89.5228   12.7340 N.2     1  UNL1       -0.2200
      7 C          61.8762   90.0708   11.4101 C.2     1  UNL1        0.1901
      8 N          62.8523   91.1322   10.9970 N.2     1  UNL1       -0.2236
      9 C          63.8994   91.2401   12.0656 C.2     1  UNL1        0.0863
     10 C          65.1100   92.1156   12.1999 C.3     1  UNL1        0.1112
     11 C          67.5580   93.4605   14.8749 C.3     1  UNL1        0.2520
     12 O          67.2021   92.8720   13.5419 O.2     1  UNL1       -0.4753
     13 C          60.1673   88.2257   10.7581 C.3     1  UNL1        0.1107
     14 C          61.0994   87.0747   10.5204 C.ar    1  UNL1        0.0703
     15 C          61.6150   86.8001    9.1388 C.ar    1  UNL1        0.0156
     16 C          62.5470   85.6492    8.9011 C.ar    1  UNL1        0.0027
     17 C          62.9635   84.7727   10.0450 C.ar    1  UNL1        0.0177
     18 C          63.8955   83.6217    9.8073 C.ar    1  UNL1        0.0015
     19 C          64.3119   82.7453   10.9511 C.ar    1  UNL1        0.0001
     20 C          63.7963   83.0198   12.3327 C.ar    1  UNL1        0.0015
     21 C          62.8643   84.1708   12.5704 C.ar    1  UNL1        0.0191
     22 C          62.4479   85.0472   11.4266 C.ar    1  UNL1        0.0809
     23 N          61.5158   86.1982   11.6643 N.ar    1  UNL1       -0.2488
@<TRIPOS>BOND
     1    11    12    1
     2    12     2    1
     3     2     3    2
     4     3     4    1
     5     4     5    2
     6     5     6    1
     7     6     7    2
     8     7     1    1
     9     1    13    1
    10    13    14    1
    11    14    15   ar
    12    15    16   ar
    13    16    17   ar
    14    17    18   ar
    15    18    19   ar
    16    19    20   ar
    17    20    21   ar
    18    21    22   ar
    19    22    23   ar
    20     7     8    1
    21     8     9    2
    22     9    10    1
    23    10     2    1
    24     9     5    1
    25    23    14   ar
    26    22    17   ar
@<TRIPOS>MOLECULE
*****
 23 26 0 0 0
SMALL
GASTEIGER

@<TRIPOS>ATOM
      1 S          63.8507   84.2600   15.6487 S.3     1  UNL1       -0.0692
      2 C          64.2281   90.6549   14.8968 C.2     1  UNL1        0.1223
      3 C          63.4583   90.6758   16.1839 C.2     1  UNL1        0.0343
      4 C          63.0749   89.3874   16.8495 C.2     1  UNL1        0.0232
      5 C          63.4613   88.0781   16.2279 C.2     1  UNL1        0.0975
      6 N          63.2251   86.6582   16.6498 N.2     1  UNL1       -0.2200
      7 C          63.8489   85.7597   15.6233 C.2     1  UNL1        0.1901
      8 N          64.4707   86.6244   14.5670 N.2     1  UNL1       -0.2236
      9 C          64.2312   88.0572   14.9407 C.2     1  UNL1        0.0863
     10 C          64.6146   89.3456   14.2751 C.3     1  UNL1        0.1112
     11 C          64.9622   91.9588   12.7729 C.3     1  UNL1        0.2520
     12 O          64.6115   91.9433   14.2312 O.2     1  UNL1       -0.4753
     13 C          62.9837   83.4927   14.6949 C.3     1  UNL1        0.1107
     14 C          63.0805   83.7502   13.2202 C.ar    1  UNL1        0.0703
     15 C          64.0199   82.9396   12.3774 C.ar    1  UNL1        0.0156
     16 C          64.1167   83.1970   10.9029 C.ar    1  UNL1        0.0027
     17 C          63.2741   84.2652   10.2711 C.ar    1  UNL1        0.0177
     18 C          63.3709   84.5227    8.7966 C.ar    1  UNL1        0.0015
     19 C          62.5284   85.5908    8.1649 C.ar    1  UNL1        0.0001
     20 C          61.5890   86.4015    9.0077 C.ar    1  UNL1        0.0015
     21 C          61.4922   86.1440   10.4822 C.ar    1  UNL1        0.0191
     22 C          62.3347   85.0759   11.1139 C.ar    1  UNL1        0.0809
     23 N          62.2380   84.8184   12.5885 N.ar    1  UNL1       -0.2488
@<TRIPOS>BOND
     1    11    12    1
     2    12     2    1
     3     2     3    2
     4     3     4    1
     5     4     5    2
     6     5     6    1
     7     6     7    2
     8     7     1    1
     9     1    13    1
    10    13    14    1
    11    14    15   ar
    12    15    16   ar
    13    16    17   ar
    14    17    18   ar
    15    18    19   ar
    16    19    20   ar
    17    20    21   ar
    18    21    22   ar
    19    22    23   ar
    20     7     8    1
    21     8     9    2
    22     9    10    1
    23    10     2    1
    24     9     5    1
    25    23    14   ar
    26    22    17   ar
@<TRIPOS>MOLECULE
*****
 23 26 0 0 0
SMALL
GASTEIGER

@<TRIPOS>ATOM
      1 S          60.2461   88.0228    9.8922 S.3     1  UNL1       -0.0692
      2 C          63.8675   83.0729   11.8892 C.2     1  UNL1        0.1223
      3 C          64.2435   82.9904   10.4394 C.2     1  UNL1        0.0343
      4 C          63.6590   83.9612    9.4566 C.2     1  UNL1        0.0232
      5 C          62.6986   85.0145    9.9235 C.2     1  UNL1        0.0975
      6 N          61.9665   86.1004    9.1922 N.2     1  UNL1       -0.2200
      7 C          61.1381   86.8542   10.1901 C.2     1  UNL1        0.1901
      8 N          61.3582   86.2341   11.5380 N.2     1  UNL1       -0.2236
      9 C          62.3226   85.0971   11.3733 C.2     1  UNL1        0.0863
     10 C          62.9071   84.1263   12.3562 C.3     1  UNL1        0.1112
     11 C          63.5883   81.0348   13.4760 C.3     1  UNL1        0.2520
     12 O          64.4520   82.1021   12.8720 O.2     1  UNL1       -0.4753
     13 C          60.2073   89.1944   10.8281 C.3     1  UNL1        0.1107
     14 C          61.4814   89.8787   11.2264 C.ar    1  UNL1        0.0703
     15 C          62.2391   90.6962   10.2227 C.ar    1  UNL1        0.0156
     16 C          63.5131   91.3804   10.6209 C.ar    1  UNL1        0.0027
     17 C          64.0294   91.2473   12.0230 C.ar    1  UNL1        0.0177
     18 C          65.3034   91.9315   12.4212 C.ar    1  UNL1        0.0015
     19 C          65.8197   91.7983   13.8232 C.ar    1  UNL1        0.0001
     20 C          65.0620   90.9809   14.8270 C.ar    1  UNL1        0.0015
     21 C          63.7880   90.2966   14.4287 C.ar    1  UNL1        0.0191
     22 C          63.2717   90.4298   13.0267 C.ar    1  UNL1        0.0809
     23 N          61.9977   89.7455   12.6284 N.ar    1  UNL1       -0.2488
@<TRIPOS>BOND
     1    11    12    1
     2    12     2    1
     3     2     3    2
     4     3     4    1
     5     4     5    2
     6     5     6    1
     7     6     7    2
     8     7     1    1
     9     1    13    1
    10    13    14    1
    11    14    15   ar
    12    15    16   ar
    13    16    17   ar
    14    17    18   ar
    15    18    19   ar
    16    19    20   ar
    17    20    21   ar
    18    21    22   ar
    19    22    23   ar
    20     7     8    1
    21     8     9    2
    22     9    10    1
    23    10     2    1
    24     9     5    1
    25    23    14   ar
    26    22    17   ar
@<TRIPOS>MOLECULE
*****
 23 26 0 0 0
SMALL
GASTEIGER

@<TRIPOS>ATOM
      1 S          61.9713   87.7105   10.5005 S.3     1  UNL1       -0.0692
      2 C          63.3640   82.2996   13.7233 C.2     1  UNL1        0.1223
      3 C          64.0221   83.2476   14.6815 C.2     1  UNL1        0.0343
      4 C          64.0021   84.7227   14.4099 C.2     1  UNL1        0.0232
      5 C          63.3239   85.2498   13.1802 C.2     1  UNL1        0.0975
      6 N          63.1439   86.6421   12.6520 N.2     1  UNL1       -0.2200
      7 C          62.3745   86.5546   11.3673 C.2     1  UNL1        0.1901
      8 N          62.0790   85.1082   11.1016 N.2     1  UNL1       -0.2236
      9 C          62.6657   84.3018   12.2220 C.2     1  UNL1        0.0863
     10 C          62.6858   82.8267   12.4935 C.3     1  UNL1        0.1112
     11 C          62.2982   79.9463   13.4476 C.3     1  UNL1        0.2520
     12 O          63.3841   80.8245   13.9949 O.2     1  UNL1       -0.4753
     13 C          61.6142   89.0270   11.1244 C.3     1  UNL1        0.1107
     14 C          62.6912   90.0179   11.4531 C.ar    1  UNL1        0.0703
     15 C          63.1746   90.9757   10.4048 C.ar    1  UNL1        0.0156
     16 C          64.2516   91.9666   10.7334 C.ar    1  UNL1        0.0027
     17 C          64.8453   91.9998   12.1106 C.ar    1  UNL1        0.0177
     18 C          65.9223   92.9907   12.4393 C.ar    1  UNL1        0.0015
     19 C          66.5160   93.0239   13.8163 C.ar    1  UNL1        0.0001
     20 C          66.0327   92.0662   14.8647 C.ar    1  UNL1        0.0015
     21 C          64.9557   91.0752   14.5361 C.ar    1  UNL1        0.0191
     22 C          64.3620   91.0421   13.1590 C.ar    1  UNL1        0.0809
     23 N          63.2849   90.0511   12.8302 N.ar    1  UNL1       -0.2488
@<TRIPOS>BOND
     1    11    12    1
     2    12     2    1
     3     2     3    2
     4     3     4    1
     5     4     5    2
     6     5     6    1
     7     6     7    2
     8     7     1    1
     9     1    13    1
    10    13    14    1
    11    14    15   ar
    12    15    16   ar
    13    16    17   ar
    14    17    18   ar
    15    18    19   ar
    16    19    20   ar
    17    20    21   ar
    18    21    22   ar
    19    22    23   ar
    20     7     8    1
    21     8     9    2
    22     9    10    1
    23    10     2    1
    24     9     5    1
    25    23    14   ar
    26    22    17   ar
@<TRIPOS>MOLECULE
*****
 23 26 0 0 0
SMALL
GASTEIGER

@<TRIPOS>ATOM
      1 S          63.9287   83.5622   14.3177 S.3     1  UNL1       -0.0692
      2 C          61.2922   86.3443    9.1300 C.2     1  UNL1        0.1223
      3 C          62.3259   85.5454    8.3931 C.2     1  UNL1        0.0343
      4 C          63.2726   84.6628    9.1512 C.2     1  UNL1        0.0232
      5 C          63.1855   84.5791   10.6463 C.2     1  UNL1        0.0975
      6 N          63.9770   83.8016   11.6558 N.2     1  UNL1       -0.2200
      7 C          63.4324   84.1200   13.0168 C.2     1  UNL1        0.1901
      8 N          62.3044   85.0943   12.8483 N.2     1  UNL1       -0.2236
      9 C          62.1518   85.3780   11.3833 C.2     1  UNL1        0.0863
     10 C          61.2051   86.2606   10.6252 C.3     1  UNL1        0.1112
     11 C          59.1553   86.6309    7.6803 C.3     1  UNL1        0.2520
     12 O          60.3455   87.2269    8.3719 O.2     1  UNL1       -0.4753
     13 C          63.3516   84.0520   15.6127 C.3     1  UNL1        0.1107
     14 C          63.3386   85.5201   15.9203 C.ar    1  UNL1        0.0703
     15 C          62.7299   86.0129   17.1996 C.ar    1  UNL1        0.0156
     16 C          62.7169   87.4809   17.5072 C.ar    1  UNL1        0.0027
     17 C          63.3125   88.4562   16.5355 C.ar    1  UNL1        0.0177
     18 C          63.2994   89.9243   16.8432 C.ar    1  UNL1        0.0015
     19 C          63.8951   90.8994   15.8715 C.ar    1  UNL1        0.0001
     20 C          64.5037   90.4066   14.5922 C.ar    1  UNL1        0.0015
     21 C          64.5168   88.9386   14.2846 C.ar    1  UNL1        0.0191
     22 C          63.9212   87.9634   15.2562 C.ar    1  UNL1        0.0809
     23 N          63.9342   86.4953   14.9486 N.ar    1  UNL1       -0.2488
@<TRIPOS>BOND
     1    11    12    1
     2    12     2    1
     3     2     3    2
     4     3     4    1
     5     4     5    2
     6     5     6    1
     7     6     7    2
     8     7     1    1
     9     1    13    1
    10    13    14    1
    11    14    15   ar
    12    15    16   ar
    13    16    17   ar
    14    17    18   ar
    15    18    19   ar
    16    19    20   ar
    17    20    21   ar
    18    21    22   ar
    19    22    23   ar
    20     7     8    1
    21     8     9    2
    22     9    10    1
    23    10     2    1
    24     9     5    1
    25    23    14   ar
    26    22    17   ar
@<TRIPOS>MOLECULE
*****
 23 26 0 0 0
SMALL
GASTEIGER

@<TRIPOS>ATOM
      1 S          63.6220   85.6357   15.6990 S.3     1  UNL1       -0.0692
      2 C          62.9470   80.8937   11.3791 C.2     1  UNL1        0.1223
      3 C          62.5086   80.1031   12.5760 C.2     1  UNL1        0.0343
      4 C          62.4706   80.7494   13.9290 C.2     1  UNL1        0.0232
      5 C          62.8712   82.1865   14.0852 C.2     1  UNL1        0.0975
      6 N          62.9348   83.0861   15.2837 N.2     1  UNL1       -0.2200
      7 C          63.4126   84.4329   14.8276 C.2     1  UNL1        0.1901
      8 N          63.6443   84.3656   13.3472 N.2     1  UNL1       -0.2236
      9 C          63.3097   82.9772   12.8883 C.2     1  UNL1        0.0863
     10 C          63.3476   82.3309   11.5352 C.3     1  UNL1        0.1112
     11 C          62.7825   78.7668    9.8962 C.3     1  UNL1        0.2520
     12 O          62.9850   80.2474   10.0260 O.2     1  UNL1       -0.4753
     13 C          64.6195   86.6838   15.3035 C.3     1  UNL1        0.1107
     14 C          64.2224   87.7784   14.3577 C.ar    1  UNL1        0.0703
     15 C          64.5553   89.2051   14.6796 C.ar    1  UNL1        0.0156
     16 C          64.1582   90.2996   13.7339 C.ar    1  UNL1        0.0027
     17 C          63.4282   89.9674   12.4663 C.ar    1  UNL1        0.0177
     18 C          63.0312   91.0619   11.5206 C.ar    1  UNL1        0.0015
     19 C          62.3012   90.7296   10.2530 C.ar    1  UNL1        0.0001
     20 C          61.9684   89.3029    9.9312 C.ar    1  UNL1        0.0015
     21 C          62.3654   88.2084   10.8769 C.ar    1  UNL1        0.0191
     22 C          63.0954   88.5406   12.1444 C.ar    1  UNL1        0.0809
     23 N          63.4925   87.4461   13.0902 N.ar    1  UNL1       -0.2488
@<TRIPOS>BOND
     1    11    12    1
     2    12     2    1
     3     2     3    2
     4     3     4    1
     5     4     5    2
     6     5     6    1
     7     6     7    2
     8     7     1    1
     9     1    13    1
    10    13    14    1
    11    14    15   ar
    12    15    16   ar
    13    16    17   ar
    14    17    18   ar
    15    18    19   ar
    16    19    20   ar
    17    20    21   ar
    18    21    22   ar
    19    22    23   ar
    20     7     8    1
    21     8     9    2
    22     9    10    1
    23    10     2    1
    24     9     5    1
    25    23    14   ar
    26    22    17   ar
@<TRIPOS>MOLECULE
*****
 23 26 0 0 0
SMALL
GASTEIGER

@<TRIPOS>ATOM
      1 S          61.6558   88.3270   10.3964 S.3     1  UNL1       -0.0692
      2 C          63.3665   82.3512   12.1189 C.2     1  UNL1        0.1223
      3 C          63.8182   82.2574   10.6916 C.2     1  UNL1        0.0343
      4 C          63.6514   83.4317    9.7734 C.2     1  UNL1        0.0232
      5 C          63.0329   84.6998   10.2825 C.2     1  UNL1        0.0975
      6 N          62.7412   86.0120    9.6168 N.2     1  UNL1       -0.2200
      7 C          62.1092   86.9168   10.6326 C.2     1  UNL1        0.1901
      8 N          62.0102   86.1638   11.9261 N.2     1  UNL1       -0.2236
      9 C          62.5811   84.7937   11.7098 C.2     1  UNL1        0.0863
     10 C          62.7479   83.6193   12.6280 C.3     1  UNL1        0.1112
     11 C          62.3637   80.2865   13.3361 C.3     1  UNL1        0.2520
     12 O          63.5332   81.1768   13.0371 O.2     1  UNL1       -0.4753
     13 C          61.4882   89.2649   11.5550 C.3     1  UNL1        0.1107
     14 C          62.6953   89.8383   12.2364 C.ar    1  UNL1        0.0703
     15 C          63.2314   89.1935   13.4802 C.ar    1  UNL1        0.0156
     16 C          64.4384   89.7667   14.1616 C.ar    1  UNL1        0.0027
     17 C          65.1093   90.9849   13.5994 C.ar    1  UNL1        0.0177
     18 C          66.3163   91.5582   14.2809 C.ar    1  UNL1        0.0015
     19 C          66.9872   92.7762   13.7187 C.ar    1  UNL1        0.0001
     20 C          66.4511   93.4210   12.4750 C.ar    1  UNL1        0.0015
     21 C          65.2441   92.8478   11.7935 C.ar    1  UNL1        0.0191
     22 C          64.5732   91.6297   12.3557 C.ar    1  UNL1        0.0809
     23 N          63.3662   91.0563   11.6742 N.ar    1  UNL1       -0.2488
@<TRIPOS>BOND
     1    11    12    1
     2    12     2    1
     3     2     3    2
     4     3     4    1
     5     4     5    2
     6     5     6    1
     7     6     7    2
     8     7     1    1
     9     1    13    1
    10    13    14    1
    11    14    15   ar
    12    15    16   ar
    13    16    17   ar
    14    17    18   ar
    15    18    19   ar
    16    19    20   ar
    17    20    21   ar
    18    21    22   ar
    19    22    23   ar
    20     7     8    1
    21     8     9    2
    22     9    10    1
    23    10     2    1
    24     9     5    1
    25    23    14   ar
    26    22    17   ar
@<TRIPOS>MOLECULE
*****
 23 26 0 0 0
SMALL
GASTEIGER

@<TRIPOS>ATOM
      1 S          63.2059   87.9095   17.0740 S.3     1  UNL1       -0.0692
      2 C          64.0710   83.0151   12.9631 C.2     1  UNL1        0.1223
      3 C          62.9918   82.3683   13.7797 C.2     1  UNL1        0.0343
      4 C          62.3862   83.1029   14.9388 C.2     1  UNL1        0.0232
      5 C          62.8598   84.4844   15.2813 C.2     1  UNL1        0.0975
      6 N          62.4538   85.4464   16.3581 N.2     1  UNL1       -0.2200
      7 C          63.2821   86.6878   16.2071 C.2     1  UNL1        0.1901
      8 N          64.2000   86.4930   15.0368 N.2     1  UNL1       -0.2236
      9 C          63.9390   85.1312   14.4646 C.2     1  UNL1        0.0863
     10 C          64.5446   84.3966   13.3055 C.3     1  UNL1        0.1112
     11 C          63.9839   82.2772   10.4735 C.3     1  UNL1        0.2520
     12 O          64.6766   82.2805   11.8039 O.2     1  UNL1       -0.4753
     13 C          62.5782   89.1656   16.5464 C.3     1  UNL1        0.1107
     14 C          63.2071   89.8917   15.3943 C.ar    1  UNL1        0.0703
     15 C          64.4586   90.6913   15.6049 C.ar    1  UNL1        0.0156
     16 C          65.0875   91.4173   14.4529 C.ar    1  UNL1        0.0027
     17 C          64.4649   91.3438   13.0901 C.ar    1  UNL1        0.0177
     18 C          65.0938   92.0699   11.9381 C.ar    1  UNL1        0.0015
     19 C          64.4712   91.9964   10.5754 C.ar    1  UNL1        0.0001
     20 C          63.2197   91.1968   10.3648 C.ar    1  UNL1        0.0015
     21 C          62.5908   90.4707   11.5168 C.ar    1  UNL1        0.0191
     22 C          63.2134   90.5442   12.8795 C.ar    1  UNL1        0.0809
     23 N          62.5845   89.8181   14.0316 N.ar    1  UNL1       -0.2488
@<TRIPOS>BOND
     1    11    12    1
     2    12     2    1
     3     2     3    2
     4     3     4    1
     5     4     5    2
     6     5     6    1
     7     6     7    2
     8     7     1    1
     9     1    13    1
    10    13    14    1
    11    14    15   ar
    12    15    16   ar
    13    16    17   ar
    14    17    18   ar
    15    18    19   ar
    16    19    20   ar
    17    20    21   ar
    18    21    22   ar
    19    22    23   ar
    20     7     8    1
    21     8     9    2
    22     9    10    1
    23    10     2    1
    24     9     5    1
    25    23    14   ar
    26    22    17   ar
@<TRIPOS>MOLECULE
*****
 23 26 0 0 0
SMALL
GASTEIGER

@<TRIPOS>ATOM
      1 S          63.8889   88.2781   15.0003 S.3     1  UNL1       -0.0692
      2 C          65.9484   93.4944   11.8140 C.2     1  UNL1        0.1223
      3 C          64.9925   93.0139   10.7627 C.2     1  UNL1        0.0343
      4 C          64.1938   91.7647   10.9897 C.2     1  UNL1        0.0232
      5 C          64.3510   90.9959   12.2680 C.2     1  UNL1        0.0975
      6 N          63.7035   89.7394   12.7697 N.2     1  UNL1       -0.2200
      7 C          64.2592   89.4432   14.1312 C.2     1  UNL1        0.1901
      8 N          65.2502   90.5167   14.4709 N.2     1  UNL1       -0.2236
      9 C          65.3070   91.4763   13.3194 C.2     1  UNL1        0.0863
     10 C          66.1057   92.7256   13.0924 C.3     1  UNL1        0.1112
     11 C          66.0584   96.0080   11.1663 C.3     1  UNL1        0.2520
     12 O          66.7471   94.7436   11.5870 O.2     1  UNL1       -0.4753
     13 C          64.6917   87.0125   14.9401 C.3     1  UNL1        0.1107
     14 C          63.9995   85.6926   14.7698 C.ar    1  UNL1        0.0703
     15 C          63.1265   85.1567   15.8655 C.ar    1  UNL1        0.0156
     16 C          62.4343   83.8369   15.6952 C.ar    1  UNL1        0.0027
     17 C          62.6151   83.0530   14.4291 C.ar    1  UNL1        0.0177
     18 C          61.9230   81.7332   14.2588 C.ar    1  UNL1        0.0015
     19 C          62.1038   80.9494   12.9928 C.ar    1  UNL1        0.0001
     20 C          62.9768   81.4854   11.8971 C.ar    1  UNL1        0.0015
     21 C          63.6689   82.8051   12.0674 C.ar    1  UNL1        0.0191
     22 C          63.4881   83.5889   13.3334 C.ar    1  UNL1        0.0809
     23 N          64.1803   84.9088   13.5037 N.ar    1  UNL1       -0.2488
@<TRIPOS>BOND
     1    11    12    1
     2    12     2    1
     3     2     3    2
     4     3     4    1
     5     4     5    2
     6     5     6    1
     7     6     7    2
     8     7     1    1
     9     1    13    1
    10    13    14    1
    11    14    15   ar
    12    15    16   ar
    13    16    17   ar
    14    17    18   ar
    15    18    19   ar
    16    19    20   ar
    17    20    21   ar
    18    21    22   ar
    19    22    23   ar
    20     7     8    1
    21     8     9    2
    22     9    10    1
    23    10     2    1
    24     9     5    1
    25    23    14   ar
    26    22    17   ar
