@<TRIPOS>MOLECULE
*****
 25 28 0 0 0
SMALL
GASTEIGER

@<TRIPOS>ATOM
      1 C          63.3575   82.9965   10.9989 C.3     1  UNL1        0.0326
      2 C          63.3242   84.3071   11.7275 C.ar    1  UNL1       -0.0037
      3 C          64.0304   84.4522   13.0429 C.ar    1  UNL1        0.0086
      4 C          63.9971   85.7629   13.7716 C.ar    1  UNL1        0.0574
      5 CL         64.7033   85.9080   15.0869 Cl      1  UNL1       -0.0823
      6 C          63.2576   86.9286   13.1848 C.ar    1  UNL1        0.0126
      7 C          62.5513   86.7835   11.8693 C.ar    1  UNL1        0.0163
      8 C          61.8118   87.9493   11.2826 C.2     1  UNL1        0.0109
      9 C          61.1056   87.8042    9.9672 C.2     1  UNL1        0.0386
     10 C          60.3015   88.7697    9.1479 C.2     1  UNL1        0.0801
     11 C          60.0119   90.1984    9.5015 C.3     1  UNL1        0.0538
     12 N          59.8379   88.0557    7.9129 N.2     1  UNL1       -0.1551
     13 N          60.3554   86.6489    7.9690 N.2     1  UNL1       -0.1469
     14 C          61.1390   86.4935    9.2386 C.3     1  UNL1        0.2503
     15 N          61.8785   85.3278    9.8254 N.2     1  UNL1       -0.2427
     16 C          62.5846   85.4729   11.1407 C.ar    1  UNL1        0.0743
     17 C          61.7785   89.2600   12.0112 C.3     1  UNL1        0.1550
     18 O          60.5997   89.6111   12.8697 O.3     1  UNL1       -0.3756
     19 H          59.9541   88.8876   12.8440 H       1  UNL1        0.2112
     20 C          62.9241   90.2196   11.8814 C.ar    1  UNL1        0.0115
     21 C          63.1853   90.9031   10.5720 C.ar    1  UNL1        0.0191
     22 C          64.3309   91.8626   10.4422 C.ar    1  UNL1        0.0986
     23 N          65.2152   92.1387   11.6219 N.ar    1  UNL1       -0.2423
     24 C          64.9540   91.4553   12.9313 C.ar    1  UNL1        0.0986
     25 C          63.8085   90.4957   13.0611 C.ar    1  UNL1        0.0191
@<TRIPOS>BOND
     1     1     2    1
     2     2     3   ar
     3     3     4   ar
     4     4     5    1
     5     4     6   ar
     6     6     7   ar
     7     7     8    2
     8     8    17    1
     9    17    18    1
    10    17    20    1
    11    20    21   ar
    12    21    22   ar
    13    22    23   ar
    14    23    24   ar
    15    24    25   ar
    16     8     9    1
    17     9    10    2
    18    10    11    1
    19    10    12    1
    20    12    13    2
    21    13    14    1
    22    14    15    1
    23    15    16    2
    24    16     2   ar
    25    16     7   ar
    26    25    20   ar
    27    14     9    1
    28    18    19    1
@<TRIPOS>MOLECULE
*****
 25 28 0 0 0
SMALL
GASTEIGER

@<TRIPOS>ATOM
      1 C          62.6957   85.7314   17.6798 C.3     1  UNL1        0.0326
      2 C          63.1345   85.9593   16.2637 C.ar    1  UNL1       -0.0037
      3 C          63.6787   87.2954   15.8529 C.ar    1  UNL1        0.0086
      4 C          64.1176   87.5233   14.4367 C.ar    1  UNL1        0.0574
      5 CL         64.6618   88.8594   14.0259 Cl      1  UNL1       -0.0823
      6 C          64.0122   86.4151   13.4314 C.ar    1  UNL1        0.0126
      7 C          63.4680   85.0790   13.8422 C.ar    1  UNL1        0.0163
      8 C          63.3626   83.9708   12.8367 C.2     1  UNL1        0.0109
      9 C          62.8184   82.6347   13.2475 C.2     1  UNL1        0.0386
     10 C          62.5974   81.3630   12.4833 C.2     1  UNL1        0.0801
     11 C          62.8988   81.1436   11.0304 C.3     1  UNL1        0.0538
     12 N          62.0219   80.3492   13.4273 N.2     1  UNL1       -0.1551
     13 N          61.8873   80.9943   14.7748 N.2     1  UNL1       -0.1469
     14 C          62.3796   82.4068   14.6636 C.3     1  UNL1        0.2503
     15 N          62.4849   83.5150   15.6690 N.2     1  UNL1       -0.2427
     16 C          63.0291   84.8511   15.2582 C.ar    1  UNL1        0.0743
     17 C          63.8015   84.1987   11.4205 C.3     1  UNL1        0.1550
     18 O          65.1422   83.7061   10.9624 O.3     1  UNL1       -0.3756
     19 H          65.5941   83.2660   11.6993 H       1  UNL1        0.2112
     20 C          62.8997   84.9192   10.4626 C.ar    1  UNL1        0.0115
     21 C          61.7307   85.7044   10.9792 C.ar    1  UNL1        0.0191
     22 C          60.8290   86.4249   10.0212 C.ar    1  UNL1        0.0986
     23 N          61.0963   86.3602    8.5467 N.ar    1  UNL1       -0.2423
     24 C          62.2653   85.5750    8.0301 C.ar    1  UNL1        0.0986
     25 C          63.1670   84.8545    8.9880 C.ar    1  UNL1        0.0191
@<TRIPOS>BOND
     1     1     2    1
     2     2     3   ar
     3     3     4   ar
     4     4     5    1
     5     4     6   ar
     6     6     7   ar
     7     7     8    2
     8     8    17    1
     9    17    18    1
    10    17    20    1
    11    20    21   ar
    12    21    22   ar
    13    22    23   ar
    14    23    24   ar
    15    24    25   ar
    16     8     9    1
    17     9    10    2
    18    10    11    1
    19    10    12    1
    20    12    13    2
    21    13    14    1
    22    14    15    1
    23    15    16    2
    24    16     2   ar
    25    16     7   ar
    26    25    20   ar
    27    14     9    1
    28    18    19    1
@<TRIPOS>MOLECULE
*****
 25 28 0 0 0
SMALL
GASTEIGER

@<TRIPOS>ATOM
      1 C          65.1204   85.6076   14.9777 C.3     1  UNL1        0.0326
      2 C          64.1177   85.2891   13.9086 C.ar    1  UNL1       -0.0037
      3 C          63.7113   83.8665   13.6614 C.ar    1  UNL1        0.0086
      4 C          62.7085   83.5479   12.5923 C.ar    1  UNL1        0.0574
      5 CL         62.3022   82.1253   12.3450 Cl      1  UNL1       -0.0823
      6 C          62.1121   84.6519   11.7704 C.ar    1  UNL1        0.0126
      7 C          62.5185   86.0745   12.0177 C.ar    1  UNL1        0.0163
      8 C          61.9220   87.1785   11.1958 C.2     1  UNL1        0.0109
      9 C          62.3284   88.6011   11.4430 C.2     1  UNL1        0.0386
     10 C          61.9141   89.8900   10.7971 C.2     1  UNL1        0.0801
     11 C          60.9265   90.0378    9.6778 C.3     1  UNL1        0.0538
     12 N          62.6609   91.0051   11.4670 N.2     1  UNL1       -0.1551
     13 N          63.5367   90.4054   12.5270 N.2     1  UNL1       -0.1469
     14 C          63.3312   88.9197   12.5121 C.3     1  UNL1        0.2503
     15 N          63.9276   87.8157   13.3340 N.2     1  UNL1       -0.2427
     16 C          63.5212   86.3931   13.0867 C.ar    1  UNL1        0.0743
     17 C          60.9192   86.8599   10.1266 C.3     1  UNL1        0.1550
     18 O          59.4873   87.2739   10.2942 O.3     1  UNL1       -0.3756
     19 H          59.3805   87.7331   11.1419 H       1  UNL1        0.2112
     20 C          61.3485   86.1273    8.8901 C.ar    1  UNL1        0.0115
     21 C          60.3555   85.8477    7.8012 C.ar    1  UNL1        0.0191
     22 C          60.7848   85.1151    6.5647 C.ar    1  UNL1        0.0986
     23 N          62.2071   84.6622    6.4171 N.ar    1  UNL1       -0.2423
     24 C          63.2001   84.9418    7.5060 C.ar    1  UNL1        0.0986
     25 C          62.7708   85.6743    8.7425 C.ar    1  UNL1        0.0191
@<TRIPOS>BOND
     1     1     2    1
     2     2     3   ar
     3     3     4   ar
     4     4     5    1
     5     4     6   ar
     6     6     7   ar
     7     7     8    2
     8     8    17    1
     9    17    18    1
    10    17    20    1
    11    20    21   ar
    12    21    22   ar
    13    22    23   ar
    14    23    24   ar
    15    24    25   ar
    16     8     9    1
    17     9    10    2
    18    10    11    1
    19    10    12    1
    20    12    13    2
    21    13    14    1
    22    14    15    1
    23    15    16    2
    24    16     2   ar
    25    16     7   ar
    26    25    20   ar
    27    14     9    1
    28    18    19    1
@<TRIPOS>MOLECULE
*****
 25 28 0 0 0
SMALL
GASTEIGER

@<TRIPOS>ATOM
      1 C          61.3354   89.3185   10.0872 C.3     1  UNL1        0.0326
      2 C          61.6927   87.8747    9.8932 C.ar    1  UNL1       -0.0037
      3 C          61.3389   87.1802    8.6116 C.ar    1  UNL1        0.0086
      4 C          61.6961   85.7363    8.4175 C.ar    1  UNL1        0.0574
      5 CL         61.3423   85.0418    7.1359 Cl      1  UNL1       -0.0823
      6 C          62.4071   84.9869    9.5051 C.ar    1  UNL1        0.0126
      7 C          62.7609   85.6814   10.7867 C.ar    1  UNL1        0.0163
      8 C          63.4720   84.9320   11.8743 C.2     1  UNL1        0.0109
      9 C          63.8258   85.6265   13.1559 C.2     1  UNL1        0.0386
     10 C          64.5209   85.1501   14.3968 C.2     1  UNL1        0.0801
     11 C          65.0506   83.7671   14.6350 C.3     1  UNL1        0.0538
     12 N          64.5933   86.2996   15.3578 N.2     1  UNL1       -0.1551
     13 N          63.9429   87.4864   14.7108 N.2     1  UNL1       -0.1469
     14 C          63.4686   87.0703   13.3499 C.3     1  UNL1        0.2503
     15 N          62.7575   87.8197   12.2624 N.2     1  UNL1       -0.2427
     16 C          62.4037   87.1252   10.9808 C.ar    1  UNL1        0.0743
     17 C          63.8292   83.4881   11.6802 C.3     1  UNL1        0.1550
     18 O          64.9710   83.1121   10.7830 O.3     1  UNL1       -0.3756
     19 H          65.3675   83.9151   10.4105 H       1  UNL1        0.2112
     20 C          63.0447   82.4203   12.3833 C.ar    1  UNL1        0.0115
     21 C          63.1406   80.9950   11.9260 C.ar    1  UNL1        0.0191
     22 C          62.3561   79.9273   12.6291 C.ar    1  UNL1        0.0986
     23 N          61.4756   80.2849   13.7897 N.ar    1  UNL1       -0.2423
     24 C          61.3797   81.7103   14.2471 C.ar    1  UNL1        0.0986
     25 C          62.1643   82.7780   13.5439 C.ar    1  UNL1        0.0191
@<TRIPOS>BOND
     1     1     2    1
     2     2     3   ar
     3     3     4   ar
     4     4     5    1
     5     4     6   ar
     6     6     7   ar
     7     7     8    2
     8     8    17    1
     9    17    18    1
    10    17    20    1
    11    20    21   ar
    12    21    22   ar
    13    22    23   ar
    14    23    24   ar
    15    24    25   ar
    16     8     9    1
    17     9    10    2
    18    10    11    1
    19    10    12    1
    20    12    13    2
    21    13    14    1
    22    14    15    1
    23    15    16    2
    24    16     2   ar
    25    16     7   ar
    26    25    20   ar
    27    14     9    1
    28    18    19    1
@<TRIPOS>MOLECULE
*****
 25 28 0 0 0
SMALL
GASTEIGER

@<TRIPOS>ATOM
      1 C          61.0857   86.9888    9.1020 C.3     1  UNL1        0.0326
      2 C          61.8940   87.3379   10.3163 C.ar    1  UNL1       -0.0037
      3 C          62.2042   88.7730   10.6236 C.ar    1  UNL1        0.0086
      4 C          63.0125   89.1222   11.8379 C.ar    1  UNL1        0.0574
      5 CL         63.3228   90.5572   12.1453 Cl      1  UNL1       -0.0823
      6 C          63.5106   88.0363   12.7450 C.ar    1  UNL1        0.0126
      7 C          63.2004   86.6012   12.4377 C.ar    1  UNL1        0.0163
      8 C          63.6985   85.5153   13.3449 C.2     1  UNL1        0.0109
      9 C          63.3882   84.0803   13.0376 C.2     1  UNL1        0.0386
     10 C          63.7412   82.8040   13.7422 C.2     1  UNL1        0.0801
     11 C          64.5435   82.6864   15.0041 C.3     1  UNL1        0.0538
     12 N          63.1510   81.6661   12.9633 N.2     1  UNL1       -0.1551
     13 N          62.4333   82.2391   11.7773 N.2     1  UNL1       -0.1469
     14 C          62.5799   83.7312   11.8232 C.3     1  UNL1        0.2503
     15 N          62.0818   84.8171   10.9161 N.2     1  UNL1       -0.2427
     16 C          62.3921   86.2521   11.2234 C.ar    1  UNL1        0.0743
     17 C          64.5068   85.8646   14.5592 C.3     1  UNL1        0.1550
     18 O          65.9737   85.5534   14.5987 O.3     1  UNL1       -0.3756
     19 H          66.2371   85.1310   13.7662 H       1  UNL1        0.2112
     20 C          63.8483   86.5249   15.7341 C.ar    1  UNL1        0.0115
     21 C          63.8053   88.0215   15.8264 C.ar    1  UNL1        0.0191
     22 C          63.1467   88.6817   17.0013 C.ar    1  UNL1        0.0986
     23 N          62.5312   87.8454   18.0838 N.ar    1  UNL1       -0.2423
     24 C          62.5743   86.3489   17.9915 C.ar    1  UNL1        0.0986
     25 C          63.2328   85.6887   16.8166 C.ar    1  UNL1        0.0191
@<TRIPOS>BOND
     1     1     2    1
     2     2     3   ar
     3     3     4   ar
     4     4     5    1
     5     4     6   ar
     6     6     7   ar
     7     7     8    2
     8     8    17    1
     9    17    18    1
    10    17    20    1
    11    20    21   ar
    12    21    22   ar
    13    22    23   ar
    14    23    24   ar
    15    24    25   ar
    16     8     9    1
    17     9    10    2
    18    10    11    1
    19    10    12    1
    20    12    13    2
    21    13    14    1
    22    14    15    1
    23    15    16    2
    24    16     2   ar
    25    16     7   ar
    26    25    20   ar
    27    14     9    1
    28    18    19    1
@<TRIPOS>MOLECULE
*****
 25 28 0 0 0
SMALL
GASTEIGER

@<TRIPOS>ATOM
      1 C          62.7525   91.2323    8.9384 C.3     1  UNL1        0.0326
      2 C          62.4605   90.8073   10.3469 C.ar    1  UNL1       -0.0037
      3 C          61.1987   90.0583   10.6580 C.ar    1  UNL1        0.0086
      4 C          60.9067   89.6333   12.0666 C.ar    1  UNL1        0.0574
      5 CL         59.6448   88.8843   12.3778 Cl      1  UNL1       -0.0823
      6 C          61.8765   89.9573   13.1641 C.ar    1  UNL1        0.0126
      7 C          63.1384   90.7063   12.8530 C.ar    1  UNL1        0.0163
      8 C          64.1082   91.0303   13.9505 C.2     1  UNL1        0.0109
      9 C          65.3700   91.7793   13.6394 C.2     1  UNL1        0.0386
     10 C          66.5052   92.2372   14.5065 C.2     1  UNL1        0.0801
     11 C          66.6256   92.0244   15.9864 C.3     1  UNL1        0.0538
     12 N          67.4987   92.9451   13.6337 N.2     1  UNL1       -0.1551
     13 N          66.9776   92.9248   12.2273 N.2     1  UNL1       -0.1469
     14 C          65.6620   92.2043   12.2308 C.3     1  UNL1        0.2503
     15 N          64.6922   91.8803   11.1333 N.2     1  UNL1       -0.2427
     16 C          63.4304   91.1313   11.4444 C.ar    1  UNL1        0.0743
     17 C          63.8161   90.6053   15.3591 C.3     1  UNL1        0.1550
     18 O          63.6011   91.6386   16.4249 O.3     1  UNL1       -0.3756
     19 H          63.6846   92.5243   16.0382 H       1  UNL1        0.2112
     20 C          63.7392   89.1471   15.7018 C.ar    1  UNL1        0.0115
     21 C          64.4052   88.1331   14.8196 C.ar    1  UNL1        0.0191
     22 C          64.3282   86.6748   15.1624 C.ar    1  UNL1        0.0986
     23 N          63.5852   86.2305   16.3874 N.ar    1  UNL1       -0.2423
     24 C          62.9192   87.2445   17.2696 C.ar    1  UNL1        0.0986
     25 C          62.9962   88.7028   16.9268 C.ar    1  UNL1        0.0191
@<TRIPOS>BOND
     1     1     2    1
     2     2     3   ar
     3     3     4   ar
     4     4     5    1
     5     4     6   ar
     6     6     7   ar
     7     7     8    2
     8     8    17    1
     9    17    18    1
    10    17    20    1
    11    20    21   ar
    12    21    22   ar
    13    22    23   ar
    14    23    24   ar
    15    24    25   ar
    16     8     9    1
    17     9    10    2
    18    10    11    1
    19    10    12    1
    20    12    13    2
    21    13    14    1
    22    14    15    1
    23    15    16    2
    24    16     2   ar
    25    16     7   ar
    26    25    20   ar
    27    14     9    1
    28    18    19    1
@<TRIPOS>MOLECULE
*****
 25 28 0 0 0
SMALL
GASTEIGER

@<TRIPOS>ATOM
      1 C          64.2391   90.0511   14.9019 C.3     1  UNL1        0.0326
      2 C          63.7865   89.5876   13.5491 C.ar    1  UNL1       -0.0037
      3 C          63.5452   90.5862   12.4562 C.ar    1  UNL1        0.0086
      4 C          63.0926   90.1228   11.1032 C.ar    1  UNL1        0.0574
      5 CL         62.8512   91.1214   10.0103 Cl      1  UNL1       -0.0823
      6 C          62.8813   88.6607   10.8433 C.ar    1  UNL1        0.0126
      7 C          63.1226   87.6620   11.9363 C.ar    1  UNL1        0.0163
      8 C          62.9113   86.1998   11.6762 C.2     1  UNL1        0.0109
      9 C          63.1526   85.2012   12.7692 C.2     1  UNL1        0.0386
     10 C          63.0292   83.7068   12.8085 C.2     1  UNL1        0.0801
     11 C          62.6041   82.8270   11.6704 C.3     1  UNL1        0.0538
     12 N          63.4056   83.2468   14.1856 N.2     1  UNL1       -0.1551
     13 N          63.7616   84.4568   14.9975 N.2     1  UNL1       -0.1469
     14 C          63.6052   85.6647   14.1221 C.3     1  UNL1        0.2503
     15 N          63.8165   87.1268   14.3820 N.2     1  UNL1       -0.2427
     16 C          63.5752   88.1254   13.2891 C.ar    1  UNL1        0.0743
     17 C          62.4587   85.7364   10.3233 C.3     1  UNL1        0.1550
     18 O          63.2460   84.6946    9.5853 O.3     1  UNL1       -0.3756
     19 H          64.0115   84.4296   10.1189 H       1  UNL1        0.2112
     20 C          61.2188   86.3148    9.7085 C.ar    1  UNL1        0.0115
     21 C          60.3820   87.2895   10.4829 C.ar    1  UNL1        0.0191
     22 C          59.1421   87.8678    9.8680 C.ar    1  UNL1        0.0986
     23 N          58.7390   87.4715    8.4786 N.ar    1  UNL1       -0.2423
     24 C          59.5757   86.4968    7.7042 C.ar    1  UNL1        0.0986
     25 C          60.8156   85.9185    8.3191 C.ar    1  UNL1        0.0191
@<TRIPOS>BOND
     1     1     2    1
     2     2     3   ar
     3     3     4   ar
     4     4     5    1
     5     4     6   ar
     6     6     7   ar
     7     7     8    2
     8     8    17    1
     9    17    18    1
    10    17    20    1
    11    20    21   ar
    12    21    22   ar
    13    22    23   ar
    14    23    24   ar
    15    24    25   ar
    16     8     9    1
    17     9    10    2
    18    10    11    1
    19    10    12    1
    20    12    13    2
    21    13    14    1
    22    14    15    1
    23    15    16    2
    24    16     2   ar
    25    16     7   ar
    26    25    20   ar
    27    14     9    1
    28    18    19    1
@<TRIPOS>MOLECULE
*****
 25 28 0 0 0
SMALL
GASTEIGER

@<TRIPOS>ATOM
      1 C          60.8978   84.9468    7.4791 C.3     1  UNL1        0.0326
      2 C          60.8267   86.2934    8.1360 C.ar    1  UNL1       -0.0037
      3 C          60.0895   87.4159    7.4679 C.ar    1  UNL1        0.0086
      4 C          60.0185   88.7626    8.1248 C.ar    1  UNL1        0.0574
      5 CL         59.2812   89.8851    7.4566 Cl      1  UNL1       -0.0823
      6 C          60.6847   88.9867    9.4499 C.ar    1  UNL1        0.0126
      7 C          61.4220   87.8641   10.1181 C.ar    1  UNL1        0.0163
      8 C          62.0882   88.0883   11.4432 C.2     1  UNL1        0.0109
      9 C          62.8254   86.9657   12.1114 C.2     1  UNL1        0.0386
     10 C          63.5741   86.8886   13.4089 C.2     1  UNL1        0.0801
     11 C          63.7570   88.0090   14.3893 C.3     1  UNL1        0.0538
     12 N          64.1078   85.4943   13.5538 N.2     1  UNL1       -0.1551
     13 N          63.6890   84.7097   12.3459 N.2     1  UNL1       -0.1469
     14 C          62.8964   85.6191   11.4544 C.3     1  UNL1        0.2503
     15 N          62.2302   85.3950   10.1293 N.2     1  UNL1       -0.2427
     16 C          61.4930   86.5176    9.4612 C.ar    1  UNL1        0.0743
     17 C          62.0172   89.4349   12.1001 C.3     1  UNL1        0.1550
     18 O          60.8503   89.7811   12.9768 O.3     1  UNL1       -0.3756
     19 H          60.2381   89.0295   13.0119 H       1  UNL1        0.2112
     20 C          63.1129   90.4354   11.8803 C.ar    1  UNL1        0.0115
     21 C          64.0079   90.8295   13.0177 C.ar    1  UNL1        0.0191
     22 C          65.1037   91.8300   12.7978 C.ar    1  UNL1        0.0986
     23 N          65.3045   92.4363   11.4406 N.ar    1  UNL1       -0.2423
     24 C          64.4095   92.0421   10.3032 C.ar    1  UNL1        0.0986
     25 C          63.3137   91.0416   10.5231 C.ar    1  UNL1        0.0191
@<TRIPOS>BOND
     1     1     2    1
     2     2     3   ar
     3     3     4   ar
     4     4     5    1
     5     4     6   ar
     6     6     7   ar
     7     7     8    2
     8     8    17    1
     9    17    18    1
    10    17    20    1
    11    20    21   ar
    12    21    22   ar
    13    22    23   ar
    14    23    24   ar
    15    24    25   ar
    16     8     9    1
    17     9    10    2
    18    10    11    1
    19    10    12    1
    20    12    13    2
    21    13    14    1
    22    14    15    1
    23    15    16    2
    24    16     2   ar
    25    16     7   ar
    26    25    20   ar
    27    14     9    1
    28    18    19    1
@<TRIPOS>MOLECULE
*****
 25 28 0 0 0
SMALL
GASTEIGER

@<TRIPOS>ATOM
      1 C          63.8190   83.2519   15.2764 C.3     1  UNL1        0.0326
      2 C          63.5006   83.3214   13.8123 C.ar    1  UNL1       -0.0037
      3 C          63.3382   82.0586   13.0192 C.ar    1  UNL1        0.0086
      4 C          63.0198   82.1281   11.5550 C.ar    1  UNL1        0.0574
      5 CL         62.8574   80.8653   10.7620 Cl      1  UNL1       -0.0823
      6 C          62.8637   83.4605   10.8839 C.ar    1  UNL1        0.0126
      7 C          63.0261   84.7234   11.6770 C.ar    1  UNL1        0.0163
      8 C          62.8700   86.0558   11.0059 C.2     1  UNL1        0.0109
      9 C          63.0324   87.3186   11.7989 C.2     1  UNL1        0.0386
     10 C          62.9374   88.7651   11.4134 C.2     1  UNL1        0.0801
     11 C          62.6357   89.2943   10.0427 C.3     1  UNL1        0.0538
     12 N          63.1972   89.5895   12.6393 N.2     1  UNL1       -0.1551
     13 N          63.4527   88.6525   13.7825 N.2     1  UNL1       -0.1469
     14 C          63.3508   87.2490   13.2631 C.3     1  UNL1        0.2503
     15 N          63.5069   85.9166   13.9342 N.2     1  UNL1       -0.2427
     16 C          63.3445   84.6538   13.1411 C.ar    1  UNL1        0.0743
     17 C          62.5516   86.1253    9.5417 C.3     1  UNL1        0.1550
     18 O          63.6259   85.8665    8.5274 O.3     1  UNL1       -0.3756
     19 H          64.4598   85.6706    8.9826 H       1  UNL1        0.2112
     20 C          61.1588   86.4536    9.0918 C.ar    1  UNL1        0.0115
     21 C          60.2564   87.2629    9.9754 C.ar    1  UNL1        0.0191
     22 C          58.8637   87.5912    9.5254 C.ar    1  UNL1        0.0986
     23 N          58.3733   87.1102    8.1919 N.ar    1  UNL1       -0.2423
     24 C          59.2758   86.3009    7.3083 C.ar    1  UNL1        0.0986
     25 C          60.6685   85.9727    7.7583 C.ar    1  UNL1        0.0191
@<TRIPOS>BOND
     1     1     2    1
     2     2     3   ar
     3     3     4   ar
     4     4     5    1
     5     4     6   ar
     6     6     7   ar
     7     7     8    2
     8     8    17    1
     9    17    18    1
    10    17    20    1
    11    20    21   ar
    12    21    22   ar
    13    22    23   ar
    14    23    24   ar
    15    24    25   ar
    16     8     9    1
    17     9    10    2
    18    10    11    1
    19    10    12    1
    20    12    13    2
    21    13    14    1
    22    14    15    1
    23    15    16    2
    24    16     2   ar
    25    16     7   ar
    26    25    20   ar
    27    14     9    1
    28    18    19    1
