@<TRIPOS>MOLECULE
*****
 33 36 0 0 0
SMALL
GASTEIGER

@<TRIPOS>ATOM
      1 C          60.0451   91.2340    4.8221 C.ar    1  UNL1       -0.0044
      2 C          61.4861   90.9135    4.5564 C.ar    1  UNL1       -0.0014
      3 C          62.2041   91.5755    3.4178 C.ar    1  UNL1        0.0144
      4 C          61.4811   92.5581    2.5451 C.ar    1  UNL1        0.0516
      5 C          60.0400   92.8786    2.8108 C.ar    1  UNL1        0.0144
      6 C          59.3220   92.2166    3.9493 C.ar    1  UNL1       -0.0014
      7 N          62.1991   93.2201    1.4065 N.am    1  UNL1       -0.2681
      8 C          61.8253   92.8914   -0.0084 C.2     1  UNL1        0.3077
      9 O          60.7335   91.9007   -0.2849 O.2     1  UNL1       -0.2522
     10 N          62.5433   93.5534   -1.1470 N.am    1  UNL1       -0.2632
     11 C          62.4526   93.4829   -2.6426 C.3     1  UNL1        0.1010
     12 C          63.5587   94.4896   -2.7571 C.3     1  UNL1        0.0636
     13 C          63.6494   94.5602   -1.2615 C.3     1  UNL1        0.1010
     14 H          62.9157   93.8703    1.5880 H       1  UNL1        0.1564
     15 C          64.2767   95.1516   -3.8956 C.ar    1  UNL1       -0.0000
     16 C          65.3273   96.1860   -3.6197 C.ar    1  UNL1       -0.0010
     17 C          66.0453   96.8480   -4.7582 C.ar    1  UNL1        0.0204
     18 C          65.7126   96.4756   -6.1726 C.ar    1  UNL1        0.0989
     19 N          64.6620   95.4413   -6.4485 N.ar    1  UNL1       -0.2426
     20 C          63.9440   94.7793   -5.3100 C.ar    1  UNL1        0.0947
     21 C          57.8294   90.4889    5.9559 C.3     1  UNL1        0.0262
     22 C          59.3271   90.5720    5.9606 C.3     1  UNL1        0.0944
     23 N          60.1068   89.9932    7.1039 N.am    1  UNL1       -0.2987
     24 C          59.7305   88.6548    7.6669 C.2     1  UNL1        0.2461
     25 O          58.5745   87.8952    7.0867 O.2     1  UNL1       -0.2701
     26 H          60.8656   90.4917    7.4847 H       1  UNL1        0.1500
     27 C          60.5103   88.0759    8.8102 C.ar    1  UNL1        0.0556
     28 C          60.4713   86.5997    9.0734 C.ar    1  UNL1        0.0047
     29 C          61.2510   86.0209   10.2166 C.ar    1  UNL1        0.0025
     30 C          62.0697   86.9183   11.0966 C.ar    1  UNL1        0.0296
     31 C          62.1087   88.3945   10.8334 C.ar    1  UNL1        0.1403
     32 F          62.9274   89.2919   11.7134 F       1  UNL1       -0.2042
     33 C          61.3290   88.9733    9.6902 C.ar    1  UNL1        0.0341
@<TRIPOS>BOND
     1    22    21    1
     2    22    23    1
     3    23    24   am
     4    24    25    2
     5    24    27    1
     6    27    28   ar
     7    28    29   ar
     8    29    30   ar
     9    30    31   ar
    10    31    32    1
    11    31    33   ar
    12    22     1    1
    13     1     2   ar
    14     2     3   ar
    15     3     4   ar
    16     4     7    1
    17     7     8   am
    18     8     9    2
    19     8    10   am
    20    10    11    1
    21    11    12    1
    22    12    15    1
    23    15    16   ar
    24    16    17   ar
    25    17    18   ar
    26    18    19   ar
    27    19    20   ar
    28    12    13    1
    29     4     5   ar
    30     5     6   ar
    31    33    27   ar
    32     6     1   ar
    33    13    10    1
    34    20    15   ar
    35    23    26    1
    36     7    14    1
@<TRIPOS>MOLECULE
*****
 33 36 0 0 0
SMALL
GASTEIGER

@<TRIPOS>ATOM
      1 C          65.4107   91.6896   13.8152 C.ar    1  UNL1       -0.0044
      2 C          65.6722   90.6800   14.8933 C.ar    1  UNL1       -0.0014
      3 C          65.0709   89.3091   14.7988 C.ar    1  UNL1        0.0144
      4 C          64.2081   88.9477   13.6262 C.ar    1  UNL1        0.0516
      5 C          63.9466   89.9573   12.5480 C.ar    1  UNL1        0.0144
      6 C          64.5479   91.3282   12.6425 C.ar    1  UNL1       -0.0014
      7 N          63.6069   87.5767   13.5317 N.am    1  UNL1       -0.2681
      8 C          64.2624   86.4207   14.2272 C.2     1  UNL1        0.3077
      9 O          65.5192   86.6356   15.0172 O.2     1  UNL1       -0.2522
     10 N          63.6611   85.0497   14.1327 N.am    1  UNL1       -0.2632
     11 C          64.0167   83.6960   14.6724 C.3     1  UNL1        0.1010
     12 C          62.8108   83.1109   13.9991 C.3     1  UNL1        0.0636
     13 C          62.4551   84.4645   13.4594 C.3     1  UNL1        0.1010
     14 H          62.7819   87.4357   13.0132 H       1  UNL1        0.1564
     15 C          62.2095   81.7399   13.9046 C.ar    1  UNL1       -0.0000
     16 C          60.7733   81.5234   14.2792 C.ar    1  UNL1       -0.0010
     17 C          60.1720   80.1525   14.1847 C.ar    1  UNL1        0.0204
     18 C          61.0069   78.9980   13.7156 C.ar    1  UNL1        0.0989
     19 N          62.4431   79.2145   13.3411 N.ar    1  UNL1       -0.2426
     20 C          63.0444   80.5855   13.4355 C.ar    1  UNL1        0.0947
     21 C          66.8020   93.4510   15.1235 C.3     1  UNL1        0.0262
     22 C          66.0120   93.0605   13.9096 C.3     1  UNL1        0.0944
     23 N          65.8232   94.0411   12.7902 N.am    1  UNL1       -0.2987
     24 C          66.6323   93.9100   11.5340 C.2     1  UNL1        0.2461
     25 O          67.6301   92.7985   11.3971 O.2     1  UNL1       -0.2701
     26 H          65.1683   94.7706   12.8801 H       1  UNL1        0.1500
     27 C          66.4435   94.8906   10.4146 C.ar    1  UNL1        0.0556
     28 C          65.1895   95.7101   10.3389 C.ar    1  UNL1        0.0047
     29 C          65.0008   96.6906    9.2195 C.ar    1  UNL1        0.0025
     30 C          66.0661   96.8515    8.1759 C.ar    1  UNL1        0.0296
     31 C          67.3201   96.0319    8.2515 C.ar    1  UNL1        0.1403
     32 F          68.3854   96.1929    7.2079 F       1  UNL1       -0.2042
     33 C          67.5088   95.0515    9.3709 C.ar    1  UNL1        0.0341
@<TRIPOS>BOND
     1    22    21    1
     2    22    23    1
     3    23    24   am
     4    24    25    2
     5    24    27    1
     6    27    28   ar
     7    28    29   ar
     8    29    30   ar
     9    30    31   ar
    10    31    32    1
    11    31    33   ar
    12    22     1    1
    13     1     2   ar
    14     2     3   ar
    15     3     4   ar
    16     4     7    1
    17     7     8   am
    18     8     9    2
    19     8    10   am
    20    10    11    1
    21    11    12    1
    22    12    15    1
    23    15    16   ar
    24    16    17   ar
    25    17    18   ar
    26    18    19   ar
    27    19    20   ar
    28    12    13    1
    29     4     5   ar
    30     5     6   ar
    31    33    27   ar
    32     6     1   ar
    33    13    10    1
    34    20    15   ar
    35    23    26    1
    36     7    14    1
@<TRIPOS>MOLECULE
*****
 33 36 0 0 0
SMALL
GASTEIGER

@<TRIPOS>ATOM
      1 C          59.5862   90.0874    6.5926 C.ar    1  UNL1       -0.0044
      2 C          60.7675   90.4718    5.7520 C.ar    1  UNL1       -0.0014
      3 C          60.5641   91.2346    4.4765 C.ar    1  UNL1        0.0144
      4 C          59.1793   91.6130    4.0416 C.ar    1  UNL1        0.0516
      5 C          57.9979   91.2286    4.8823 C.ar    1  UNL1        0.0144
      6 C          58.2013   90.4658    6.1577 C.ar    1  UNL1       -0.0014
      7 N          58.9759   92.3758    2.7662 N.am    1  UNL1       -0.2681
      8 C          60.1535   92.7261    1.9059 C.2     1  UNL1        0.3077
      9 O          61.5347   92.3138    2.3210 O.2     1  UNL1       -0.2522
     10 N          59.9501   93.4889    0.6304 N.am    1  UNL1       -0.2632
     11 C          60.8509   94.0030   -0.4533 C.3     1  UNL1        0.1010
     12 C          59.6624   94.5677   -1.1733 C.3     1  UNL1        0.0636
     13 C          58.7615   94.0536   -0.0897 C.3     1  UNL1        0.1010
     14 H          58.0693   92.6464    2.4937 H       1  UNL1        0.1564
     15 C          59.4590   95.3304   -2.4488 C.ar    1  UNL1       -0.0000
     16 C          60.6105   96.0533   -3.0822 C.ar    1  UNL1       -0.0010
     17 C          60.4071   96.8161   -4.3577 C.ar    1  UNL1        0.0204
     18 C          59.0521   96.8560   -4.9997 C.ar    1  UNL1        0.0989
     19 N          57.9005   96.1331   -4.3663 N.ar    1  UNL1       -0.2426
     20 C          58.1039   95.3704   -3.0908 C.ar    1  UNL1        0.0947
     21 C          59.1251   87.9937    8.0601 C.3     1  UNL1        0.0262
     22 C          59.7896   89.3246    7.8680 C.3     1  UNL1        0.0944
     23 N          60.6577   89.8929    8.9514 N.am    1  UNL1       -0.2987
     24 C          61.6639   89.0203    9.6412 C.2     1  UNL1        0.2461
     25 O          61.8023   87.5794    9.2477 O.2     1  UNL1       -0.2701
     26 H          60.5669   90.8385    9.2097 H       1  UNL1        0.1500
     27 C          62.5320   89.5885   10.7246 C.ar    1  UNL1        0.0556
     28 C          63.1047   90.9674   10.5810 C.ar    1  UNL1        0.0047
     29 C          63.9727   91.5355   11.6644 C.ar    1  UNL1        0.0025
     30 C          64.2680   90.7248   12.8914 C.ar    1  UNL1        0.0296
     31 C          63.6953   89.3459   13.0350 C.ar    1  UNL1        0.1403
     32 F          63.9906   88.5352   14.2620 F       1  UNL1       -0.2042
     33 C          62.8273   88.7777   11.9516 C.ar    1  UNL1        0.0341
@<TRIPOS>BOND
     1    22    21    1
     2    22    23    1
     3    23    24   am
     4    24    25    2
     5    24    27    1
     6    27    28   ar
     7    28    29   ar
     8    29    30   ar
     9    30    31   ar
    10    31    32    1
    11    31    33   ar
    12    22     1    1
    13     1     2   ar
    14     2     3   ar
    15     3     4   ar
    16     4     7    1
    17     7     8   am
    18     8     9    2
    19     8    10   am
    20    10    11    1
    21    11    12    1
    22    12    15    1
    23    15    16   ar
    24    16    17   ar
    25    17    18   ar
    26    18    19   ar
    27    19    20   ar
    28    12    13    1
    29     4     5   ar
    30     5     6   ar
    31    33    27   ar
    32     6     1   ar
    33    13    10    1
    34    20    15   ar
    35    23    26    1
    36     7    14    1
@<TRIPOS>MOLECULE
*****
 33 36 0 0 0
SMALL
GASTEIGER

@<TRIPOS>ATOM
      1 C          60.0068   88.3573    9.2033 C.ar    1  UNL1       -0.0044
      2 C          59.3458   87.6940    8.0315 C.ar    1  UNL1       -0.0014
      3 C          59.1150   88.4646    6.7655 C.ar    1  UNL1        0.0144
      4 C          59.5452   89.8985    6.6712 C.ar    1  UNL1        0.0516
      5 C          60.2062   90.5618    7.8431 C.ar    1  UNL1        0.0144
      6 C          60.4370   89.7912    9.1091 C.ar    1  UNL1       -0.0014
      7 N          59.3143   90.6691    5.4052 N.am    1  UNL1       -0.2681
      8 C          60.4772   91.2581    4.6631 C.2     1  UNL1        0.3077
      9 O          61.8709   91.0765    5.1871 O.2     1  UNL1       -0.2522
     10 N          60.2464   92.0287    3.3970 N.am    1  UNL1       -0.2632
     11 C          61.1270   92.7400    2.4127 C.3     1  UNL1        0.1010
     12 C          59.9200   93.1185    1.6066 C.3     1  UNL1        0.0636
     13 C          59.0394   92.4073    2.5908 C.3     1  UNL1        0.1010
     14 H          58.3996   90.7883    5.0613 H       1  UNL1        0.1564
     15 C          59.6892   93.8891    0.3405 C.ar    1  UNL1       -0.0000
     16 C          59.6481   93.1727   -0.9766 C.ar    1  UNL1       -0.0010
     17 C          59.4173   93.9433   -2.2427 C.ar    1  UNL1        0.0204
     18 C          59.2275   95.4303   -2.1916 C.ar    1  UNL1        0.0989
     19 N          59.2686   96.1468   -0.8744 N.ar    1  UNL1       -0.2426
     20 C          59.4994   95.3762    0.3917 C.ar    1  UNL1        0.0947
     21 C          59.7976   88.1568   11.7852 C.3     1  UNL1        0.0262
     22 C          60.2376   87.5867   10.4694 C.3     1  UNL1        0.0944
     23 N          60.9084   86.2459   10.4196 N.am    1  UNL1       -0.2987
     24 C          62.1323   85.9884   11.2476 C.2     1  UNL1        0.2461
     25 O          62.6855   87.0716   12.1255 O.2     1  UNL1       -0.2701
     26 H          60.5453   85.5349    9.8434 H       1  UNL1        0.1500
     27 C          62.8031   84.6476   11.1978 C.ar    1  UNL1        0.0556
     28 C          63.5306   84.2185    9.9583 C.ar    1  UNL1        0.0047
     29 C          64.2014   82.8778    9.9085 C.ar    1  UNL1        0.0025
     30 C          64.1446   81.9662   11.0983 C.ar    1  UNL1        0.0296
     31 C          63.4171   82.3952   12.3379 C.ar    1  UNL1        0.1403
     32 F          63.3603   81.4835   13.5277 F       1  UNL1       -0.2042
     33 C          62.7463   83.7359   12.3876 C.ar    1  UNL1        0.0341
@<TRIPOS>BOND
     1    22    21    1
     2    22    23    1
     3    23    24   am
     4    24    25    2
     5    24    27    1
     6    27    28   ar
     7    28    29   ar
     8    29    30   ar
     9    30    31   ar
    10    31    32    1
    11    31    33   ar
    12    22     1    1
    13     1     2   ar
    14     2     3   ar
    15     3     4   ar
    16     4     7    1
    17     7     8   am
    18     8     9    2
    19     8    10   am
    20    10    11    1
    21    11    12    1
    22    12    15    1
    23    15    16   ar
    24    16    17   ar
    25    17    18   ar
    26    18    19   ar
    27    19    20   ar
    28    12    13    1
    29     4     5   ar
    30     5     6   ar
    31    33    27   ar
    32     6     1   ar
    33    13    10    1
    34    20    15   ar
    35    23    26    1
    36     7    14    1
@<TRIPOS>MOLECULE
*****
 33 36 0 0 0
SMALL
GASTEIGER

@<TRIPOS>ATOM
      1 C          64.4954   90.7456   14.2048 C.ar    1  UNL1       -0.0044
      2 C          63.8350   90.5679   12.8699 C.ar    1  UNL1       -0.0014
      3 C          63.4987   89.1918   12.3768 C.ar    1  UNL1        0.0144
      4 C          63.8228   87.9934   13.2186 C.ar    1  UNL1        0.0516
      5 C          64.4833   88.1711   14.5537 C.ar    1  UNL1        0.0144
      6 C          64.8196   89.5472   15.0468 C.ar    1  UNL1       -0.0014
      7 N          63.4864   86.6173   12.7255 N.am    1  UNL1       -0.2681
      8 C          64.1528   85.4190   13.3337 C.2     1  UNL1        0.3077
      9 O          65.1555   85.5968   14.4350 O.2     1  UNL1       -0.2522
     10 N          63.8165   84.0428   12.8406 N.am    1  UNL1       -0.2632
     11 C          64.2601   82.6531   13.1898 C.3     1  UNL1        0.1010
     12 C          63.3408   82.0967   12.1432 C.3     1  UNL1        0.0636
     13 C          62.8972   83.4864   11.7939 C.3     1  UNL1        0.1010
     14 H          62.8283   86.5006   12.0027 H       1  UNL1        0.1564
     15 C          63.0045   80.7206   11.6501 C.ar    1  UNL1       -0.0000
     16 C          63.0637   80.4143   10.1829 C.ar    1  UNL1       -0.0010
     17 C          62.7274   79.0382    9.6898 C.ar    1  UNL1        0.0204
     18 C          62.3318   77.9683   10.6639 C.ar    1  UNL1        0.0989
     19 N          62.2726   78.2746   12.1310 N.ar    1  UNL1       -0.2426
     20 C          62.6089   79.6507   12.6242 C.ar    1  UNL1        0.0947
     21 C          64.9242   92.3888   16.1711 C.3     1  UNL1        0.0262
     22 C          64.8318   92.1218   14.6980 C.3     1  UNL1        0.0944
     23 N          65.0757   93.2309   13.7179 N.am    1  UNL1       -0.2987
     24 C          66.2154   93.1368   12.7472 C.2     1  UNL1        0.2461
     25 O          67.1111   91.9336   12.7565 O.2     1  UNL1       -0.2701
     26 H          64.4878   94.0205   13.7117 H       1  UNL1        0.1500
     27 C          66.4593   94.2459   11.7671 C.ar    1  UNL1        0.0556
     28 C          66.2191   95.6702   12.1713 C.ar    1  UNL1        0.0047
     29 C          66.4631   96.7792   11.1912 C.ar    1  UNL1        0.0025
     30 C          66.9472   96.4638    9.8070 C.ar    1  UNL1        0.0296
     31 C          67.1874   95.0395    9.4028 C.ar    1  UNL1        0.1403
     32 F          67.6716   94.7241    8.0185 F       1  UNL1       -0.2042
     33 C          66.9435   93.9305   10.3828 C.ar    1  UNL1        0.0341
@<TRIPOS>BOND
     1    22    21    1
     2    22    23    1
     3    23    24   am
     4    24    25    2
     5    24    27    1
     6    27    28   ar
     7    28    29   ar
     8    29    30   ar
     9    30    31   ar
    10    31    32    1
    11    31    33   ar
    12    22     1    1
    13     1     2   ar
    14     2     3   ar
    15     3     4   ar
    16     4     7    1
    17     7     8   am
    18     8     9    2
    19     8    10   am
    20    10    11    1
    21    11    12    1
    22    12    15    1
    23    15    16   ar
    24    16    17   ar
    25    17    18   ar
    26    18    19   ar
    27    19    20   ar
    28    12    13    1
    29     4     5   ar
    30     5     6   ar
    31    33    27   ar
    32     6     1   ar
    33    13    10    1
    34    20    15   ar
    35    23    26    1
    36     7    14    1
