@<TRIPOS>MOLECULE
*****
 30 34 0 0 0
SMALL
GASTEIGER

@<TRIPOS>ATOM
      1 C          66.0699   96.8560   -5.6419 C.3     1  UNL1        0.0948
      2 C          64.7191   96.2036   -5.6324 C.2     1  UNL1        0.2267
      3 O          63.9343   96.0855   -6.9053 O.2     1  UNL1       -0.2748
      4 N          64.1532   95.6694   -4.3502 N.am    1  UNL1       -0.2683
      5 C          62.7969   95.0368   -4.4509 C.3     1  UNL1        0.1220
      6 C          61.9708   94.4170   -3.3630 C.ar    1  UNL1        0.0147
      7 C          60.6673   93.8975   -3.8932 C.ar    1  UNL1        0.0102
      8 C          59.6902   93.2377   -2.9660 C.ar    1  UNL1        0.0575
      9 CL         58.3866   92.7182   -3.4961 Cl      1  UNL1       -0.0823
     10 C          60.0164   93.0974   -1.5086 C.ar    1  UNL1        0.0129
     11 C          61.3199   93.6169   -0.9785 C.ar    1  UNL1        0.0182
     12 C          62.2971   94.2767   -1.9057 C.ar    1  UNL1        0.0639
     13 N          63.5300   94.7215   -1.1763 N.ar    1  UNL1       -0.2796
     14 C          64.7412   95.4165   -1.7240 C.ar    1  UNL1        0.1671
     15 N          65.6966   95.6453   -0.5906 N.ar    1  UNL1       -0.1315
     16 N          65.0759   95.0916    0.6577 N.ar    1  UNL1       -0.1333
     17 C          63.7369   94.5207    0.2958 C.ar    1  UNL1        0.1465
     18 C          65.0185   95.8384   -3.1366 C.3     1  UNL1        0.1602
     19 C          62.7739   93.8643    1.2400 C.3     1  UNL1        0.0625
     20 C          61.4897   94.5511    1.5992 C.3     1  UNL1        0.0291
     21 C          60.5267   93.8946    2.5434 C.3     1  UNL1        0.0926
     22 N          60.8478   92.5514    3.1285 N.pl3   1  UNL1       -0.2932
     23 C          62.1321   91.8645    2.7694 C.3     1  UNL1        0.0926
     24 C          63.0951   92.5209    1.8251 C.3     1  UNL1        0.0291
     25 C          59.8848   91.8948    4.0728 C.ar    1  UNL1        0.1317
     26 C          60.3698   90.8471    5.0304 C.ar    1  UNL1        0.0343
     27 C          59.4068   90.1906    5.9747 C.ar    1  UNL1        0.0045
     28 C          57.9588   90.5819    5.9613 C.ar    1  UNL1        0.0208
     29 C          57.4738   91.6296    5.0038 C.ar    1  UNL1        0.1003
     30 N          58.4368   92.2861    4.0595 N.ar    1  UNL1       -0.2292
@<TRIPOS>BOND
     1     1     2    1
     2     2     3    2
     3     2     4   am
     4     4     5    1
     5     5     6    1
     6     6     7   ar
     7     7     8   ar
     8     8     9    1
     9     8    10   ar
    10    10    11   ar
    11    11    12   ar
    12    12    13    1
    13    13    14   ar
    14    14    15   ar
    15    15    16   ar
    16    16    17   ar
    17    17    19    1
    18    19    20    1
    19    20    21    1
    20    21    22    1
    21    22    25    1
    22    25    26   ar
    23    26    27   ar
    24    27    28   ar
    25    28    29   ar
    26    29    30   ar
    27    22    23    1
    28    23    24    1
    29    14    18    1
    30    18     4    1
    31    12     6   ar
    32    17    13   ar
    33    24    19    1
    34    30    25   ar
