@<TRIPOS>MOLECULE
*****
 33 36 0 0 0
SMALL
GASTEIGER

@<TRIPOS>ATOM
      1 C          61.5834   88.5547   10.7028 C.ar    1  UNL1        0.0949
      2 C          60.5461   88.6962    9.6286 C.ar    1  UNL1        0.1454
      3 F          59.6860   89.9240    9.5735 F       1  UNL1       -0.2040
      4 C          60.3689   87.6100    8.6095 C.ar    1  UNL1        0.0312
      5 C          61.2289   86.3823    8.6646 C.ar    1  UNL1        0.0204
      6 C          62.2662   86.2408    9.7388 C.ar    1  UNL1        0.0924
      7 C          62.4434   87.3270   10.7579 C.ar    1  UNL1        0.1598
      8 F          63.4807   87.1856   11.8322 F       1  UNL1       -0.2026
      9 C          61.7606   89.6410   11.7220 C.2     1  UNL1        0.2007
     10 O          60.8084   89.7494   12.8758 O.2     1  UNL1       -0.2866
     11 C          63.9751   90.5864   14.1038 C.2     1  UNL1        0.1360
     12 C          65.0600   91.1618   14.9650 C.2     1  UNL1        0.0837
     13 C          66.0208   92.1616   14.3929 C.2     1  UNL1        0.2385
     14 N          65.8967   92.5859   12.9595 N.2     1  UNL1       -0.0338
     15 C          64.8118   92.0105   12.0983 C.2     1  UNL1        0.3626
     16 N          64.4448   92.2364   10.6616 N.2     1  UNL1       -0.0341
     17 C          63.2571   91.3763   10.3457 C.2     1  UNL1        0.2355
     18 C          62.8902   90.6188   11.5872 C.2     1  UNL1        0.0823
     19 C          63.8510   91.0107   12.6704 C.3     1  UNL1        0.1973
     20 C          63.0487   89.2667   16.1409 C.3     1  UNL1        0.2520
     21 O          63.0143   89.5866   14.6759 O.2     1  UNL1       -0.4746
     22 N          63.1262   85.0131    9.7939 N.pl3   1  UNL1       -0.2127
     23 H          63.7980   84.8508    9.0927 H       1  UNL1        0.1738
     24 S          62.9627   84.0326   10.9173 S.O2    1  UNL1        0.0758
     25 O          64.2677   83.3918   10.5479 O.2     1  UNL1       -0.1499
     26 O          61.6577   84.6734   11.2866 O.2     1  UNL1       -0.1499
     27 C          62.7991   83.0522   12.0406 C.ar    1  UNL1        0.1524
     28 C          62.6850   81.5859   11.7458 C.ar    1  UNL1        0.0225
     29 C          62.5214   80.6054   12.8691 C.ar    1  UNL1        0.0015
     30 C          62.4719   81.0913   14.2874 C.ar    1  UNL1        0.0024
     31 C          62.5860   82.5576   14.5822 C.ar    1  UNL1        0.0310
     32 C          62.7496   83.5381   13.4589 C.ar    1  UNL1        0.1589
     33 F          62.8637   85.0044   13.7538 F       1  UNL1       -0.2027
@<TRIPOS>BOND
     1    20    21    1
     2    21    11    1
     3    11    12    2
     4    12    13    1
     5    13    14    2
     6    14    15    1
     7    15    16    2
     8    16    17    1
     9    17    18    2
    10    18     9    1
    11     9    10    2
    12     9     1    1
    13     1     2   ar
    14     2     3    1
    15     2     4   ar
    16     4     5   ar
    17     5     6   ar
    18     6    22    1
    19    22    24    1
    20    24    25    2
    21    24    26    2
    22    24    27    1
    23    27    28   ar
    24    28    29   ar
    25    29    30   ar
    26    30    31   ar
    27    31    32   ar
    28    32    33    1
    29     6     7   ar
    30     7     8    1
    31    18    19    1
    32    19    11    1
    33    19    15    1
    34     7     1   ar
    35    32    27   ar
    36    22    23    1
@<TRIPOS>MOLECULE
*****
 33 36 0 0 0
SMALL
GASTEIGER

@<TRIPOS>ATOM
      1 C          63.9102   89.1693   15.4106 C.ar    1  UNL1        0.0949
      2 C          63.4893   88.5877   16.7276 C.ar    1  UNL1        0.1454
      3 F          63.3006   89.4825   17.9166 F       1  UNL1       -0.2040
      4 C          63.2570   87.1114   16.8555 C.ar    1  UNL1        0.0312
      5 C          63.4457   86.2166   15.6665 C.ar    1  UNL1        0.0204
      6 C          63.8666   86.7983   14.3494 C.ar    1  UNL1        0.0924
      7 C          64.0989   88.2746   14.2215 C.ar    1  UNL1        0.1598
      8 F          64.5198   88.8563   12.9045 F       1  UNL1       -0.2026
      9 C          64.1425   90.6458   15.2826 C.2     1  UNL1        0.2007
     10 O          63.1288   91.6135   15.8171 O.2     1  UNL1       -0.2866
     11 C          64.4894   91.7583   12.1026 C.2     1  UNL1        0.1360
     12 C          64.9015   92.2900   10.7620 C.2     1  UNL1        0.0837
     13 C          66.3238   92.7026   10.5237 C.2     1  UNL1        0.2385
     14 N          67.3340   92.5835   11.6261 N.2     1  UNL1       -0.0338
     15 C          66.9219   92.0518   12.9667 C.2     1  UNL1        0.3626
     16 N          67.6898   91.8220   14.2346 N.2     1  UNL1       -0.0341
     17 C          66.7421   91.2673   15.2565 C.2     1  UNL1        0.2355
     18 C          65.3885   91.1544   14.6201 C.2     1  UNL1        0.0823
     19 C          65.4996   91.6392   13.2050 C.3     1  UNL1        0.1973
     20 C          62.2678   90.7325   11.2295 C.3     1  UNL1        0.2520
     21 O          63.0671   91.3456   12.3409 O.2     1  UNL1       -0.4746
     22 N          64.0553   85.9035   13.1604 N.pl3   1  UNL1       -0.2127
     23 H          64.5119   86.2425   12.3568 H       1  UNL1        0.1738
     24 S          63.5483   84.4923   13.1958 S.O2    1  UNL1        0.0758
     25 O          62.2003   84.9651   12.7383 O.2     1  UNL1       -0.1499
     26 O          64.8962   84.0194   13.6533 O.2     1  UNL1       -0.1499
     27 C          63.0413   83.0810   13.2312 C.ar    1  UNL1        0.1524
     28 C          62.1697   82.6254   14.3638 C.ar    1  UNL1        0.0225
     29 C          61.6627   81.2141   14.3994 C.ar    1  UNL1        0.0015
     30 C          62.0273   80.2584   13.3022 C.ar    1  UNL1        0.0024
     31 C          62.8988   80.7141   12.1696 C.ar    1  UNL1        0.0310
     32 C          63.4059   82.1253   12.1341 C.ar    1  UNL1        0.1589
     33 F          64.2774   82.5809   11.0014 F       1  UNL1       -0.2027
@<TRIPOS>BOND
     1    20    21    1
     2    21    11    1
     3    11    12    2
     4    12    13    1
     5    13    14    2
     6    14    15    1
     7    15    16    2
     8    16    17    1
     9    17    18    2
    10    18     9    1
    11     9    10    2
    12     9     1    1
    13     1     2   ar
    14     2     3    1
    15     2     4   ar
    16     4     5   ar
    17     5     6   ar
    18     6    22    1
    19    22    24    1
    20    24    25    2
    21    24    26    2
    22    24    27    1
    23    27    28   ar
    24    28    29   ar
    25    29    30   ar
    26    30    31   ar
    27    31    32   ar
    28    32    33    1
    29     6     7   ar
    30     7     8    1
    31    18    19    1
    32    19    11    1
    33    19    15    1
    34     7     1   ar
    35    32    27   ar
    36    22    23    1
@<TRIPOS>MOLECULE
*****
 33 36 0 0 0
SMALL
GASTEIGER

@<TRIPOS>ATOM
      1 C          63.6434   88.6799   15.5055 C.ar    1  UNL1        0.0949
      2 C          63.2746   88.1855   16.8728 C.ar    1  UNL1        0.1454
      3 F          62.8646   89.1595   17.9372 F       1  UNL1       -0.2040
      4 C          63.3159   86.7169   17.1755 C.ar    1  UNL1        0.0312
      5 C          63.7259   85.7429   16.1111 C.ar    1  UNL1        0.0204
      6 C          64.0947   86.2374   14.7438 C.ar    1  UNL1        0.0924
      7 C          64.0534   87.7059   14.4410 C.ar    1  UNL1        0.1598
      8 F          64.4222   88.2004   13.0737 F       1  UNL1       -0.2026
      9 C          63.6022   90.1485   15.2026 C.2     1  UNL1        0.2007
     10 O          63.5477   91.1441   16.3232 O.2     1  UNL1       -0.2866
     11 C          66.0454   91.8783   13.6188 C.2     1  UNL1        0.1360
     12 C          66.9632   92.6331   12.7034 C.2     1  UNL1        0.0837
     13 C          66.5564   92.8966   11.2839 C.2     1  UNL1        0.2385
     14 N          65.2319   92.4053   10.7798 N.2     1  UNL1       -0.0338
     15 C          64.3141   91.6506   11.6952 C.2     1  UNL1        0.3626
     16 N          62.9571   91.0478   11.4823 N.2     1  UNL1       -0.0341
     17 C          62.5253   90.4117   12.7703 C.2     1  UNL1        0.2355
     18 C          63.6153   90.6214   13.7792 C.2     1  UNL1        0.0823
     19 C          64.7209   91.3871   13.1147 C.3     1  UNL1        0.1973
     20 C          66.9098   92.7467   15.9099 C.3     1  UNL1        0.2520
     21 O          66.4522   91.6148   15.0384 O.2     1  UNL1       -0.4746
     22 N          64.5047   85.2633   13.6793 N.pl3   1  UNL1       -0.2127
     23 H          65.2338   85.4910   13.0581 H       1  UNL1        0.1738
     24 S          63.8039   83.9424   13.5613 S.O2    1  UNL1        0.0758
     25 O          62.6491   84.6158   12.8810 O.2     1  UNL1       -0.1499
     26 O          64.9587   83.2689   14.2416 O.2     1  UNL1       -0.1499
     27 C          63.1032   82.6214   13.4433 C.ar    1  UNL1        0.1524
     28 C          62.0291   82.2520   14.4231 C.ar    1  UNL1        0.0225
     29 C          61.3283   80.9310   14.3052 C.ar    1  UNL1        0.0015
     30 C          61.7016   79.9793   13.2075 C.ar    1  UNL1        0.0024
     31 C          62.7757   80.3487   12.2277 C.ar    1  UNL1        0.0310
     32 C          63.4765   81.6697   12.3456 C.ar    1  UNL1        0.1589
     33 F          64.5506   82.0390   11.3658 F       1  UNL1       -0.2027
@<TRIPOS>BOND
     1    20    21    1
     2    21    11    1
     3    11    12    2
     4    12    13    1
     5    13    14    2
     6    14    15    1
     7    15    16    2
     8    16    17    1
     9    17    18    2
    10    18     9    1
    11     9    10    2
    12     9     1    1
    13     1     2   ar
    14     2     3    1
    15     2     4   ar
    16     4     5   ar
    17     5     6   ar
    18     6    22    1
    19    22    24    1
    20    24    25    2
    21    24    26    2
    22    24    27    1
    23    27    28   ar
    24    28    29   ar
    25    29    30   ar
    26    30    31   ar
    27    31    32   ar
    28    32    33    1
    29     6     7   ar
    30     7     8    1
    31    18    19    1
    32    19    11    1
    33    19    15    1
    34     7     1   ar
    35    32    27   ar
    36    22    23    1
@<TRIPOS>MOLECULE
*****
 33 36 0 0 0
SMALL
GASTEIGER

@<TRIPOS>ATOM
      1 C          62.7159   86.5612   11.9946 C.ar    1  UNL1        0.0949
      2 C          61.7258   86.1626   10.9405 C.ar    1  UNL1        0.1454
      3 F          61.5585   84.7169   10.5771 F       1  UNL1       -0.2040
      4 C          60.9032   87.2097   10.2500 C.ar    1  UNL1        0.0312
      5 C          61.0706   88.6553   10.6135 C.ar    1  UNL1        0.0204
      6 C          62.0606   89.0539   11.6675 C.ar    1  UNL1        0.0924
      7 C          62.8832   88.0068   12.3580 C.ar    1  UNL1        0.1598
      8 F          63.8733   88.4053   13.4121 F       1  UNL1       -0.2026
      9 C          63.5386   85.5141   12.6852 C.2     1  UNL1        0.2007
     10 O          64.2682   85.8487   13.9522 O.2     1  UNL1       -0.2866
     11 C          62.1934   82.6615   13.9193 C.2     1  UNL1        0.1360
     12 C          61.7108   81.2805   14.2508 C.2     1  UNL1        0.0837
     13 C          62.0540   80.1300   13.3515 C.2     1  UNL1        0.2385
     14 N          62.8798   80.3606   12.1207 N.2     1  UNL1       -0.0338
     15 C          63.3624   81.7416   11.7893 C.2     1  UNL1        0.3626
     16 N          64.1869   82.2710   10.6535 N.2     1  UNL1       -0.0341
     17 C          64.3533   83.7487   10.8509 C.2     1  UNL1        0.2355
     18 C          63.6316   84.1324   12.1086 C.2     1  UNL1        0.0823
     19 C          63.0192   82.8920   12.6886 C.3     1  UNL1        0.1973
     20 C          62.6431   84.0484   16.0697 C.3     1  UNL1        0.2520
     21 O          61.8502   83.8119   14.8186 O.2     1  UNL1       -0.4746
     22 N          62.2280   90.4995   12.0309 N.pl3   1  UNL1       -0.2127
     23 H          61.4643   91.1167   11.9593 H       1  UNL1        0.1738
     24 S          63.5589   91.0048   12.5036 S.O2    1  UNL1        0.0758
     25 O          64.0794   90.9488   11.0979 O.2     1  UNL1       -0.1499
     26 O          63.0384   91.0608   13.9093 O.2     1  UNL1       -0.1499
     27 C          64.8897   91.5101   12.9763 C.ar    1  UNL1        0.1524
     28 C          65.5323   90.9080   14.1907 C.ar    1  UNL1        0.0225
     29 C          66.8631   91.4132   14.6635 C.ar    1  UNL1        0.0015
     30 C          67.5515   92.5205   13.9219 C.ar    1  UNL1        0.0024
     31 C          66.9090   93.1226   12.7075 C.ar    1  UNL1        0.0310
     32 C          65.5781   92.6174   12.2347 C.ar    1  UNL1        0.1589
     33 F          64.9357   93.2195   11.0203 F       1  UNL1       -0.2027
@<TRIPOS>BOND
     1    20    21    1
     2    21    11    1
     3    11    12    2
     4    12    13    1
     5    13    14    2
     6    14    15    1
     7    15    16    2
     8    16    17    1
     9    17    18    2
    10    18     9    1
    11     9    10    2
    12     9     1    1
    13     1     2   ar
    14     2     3    1
    15     2     4   ar
    16     4     5   ar
    17     5     6   ar
    18     6    22    1
    19    22    24    1
    20    24    25    2
    21    24    26    2
    22    24    27    1
    23    27    28   ar
    24    28    29   ar
    25    29    30   ar
    26    30    31   ar
    27    31    32   ar
    28    32    33    1
    29     6     7   ar
    30     7     8    1
    31    18    19    1
    32    19    11    1
    33    19    15    1
    34     7     1   ar
    35    32    27   ar
    36    22    23    1
@<TRIPOS>MOLECULE
*****
 33 36 0 0 0
SMALL
GASTEIGER

@<TRIPOS>ATOM
      1 C          61.9521   88.3529   10.8916 C.ar    1  UNL1        0.0949
      2 C          61.1718   89.0563    9.8209 C.ar    1  UNL1        0.1454
      3 F          60.1146   88.3175    9.0553 F       1  UNL1       -0.2040
      4 C          61.4488   90.4986    9.5161 C.ar    1  UNL1        0.0312
      5 C          62.5060   91.2375   10.2817 C.ar    1  UNL1        0.0204
      6 C          63.2864   90.5340   11.3524 C.ar    1  UNL1        0.0924
      7 C          63.0094   89.0917   11.6572 C.ar    1  UNL1        0.1598
      8 F          63.7897   88.3882   12.7279 F       1  UNL1       -0.2026
      9 C          61.6752   86.9105   11.1965 C.2     1  UNL1        0.2007
     10 O          60.6622   86.5459   12.2409 O.2     1  UNL1       -0.2866
     11 C          63.1872   84.1718   12.4942 C.2     1  UNL1        0.1360
     12 C          63.9200   82.9024   12.8126 C.2     1  UNL1        0.0837
     13 C          64.5343   82.0939   11.7085 C.2     1  UNL1        0.2385
     14 N          64.4157   82.5548   10.2860 N.2     1  UNL1       -0.0338
     15 C          63.6829   83.8243    9.9677 C.2     1  UNL1        0.3626
     16 N          63.4052   84.5247    8.6706 N.2     1  UNL1       -0.0341
     17 C          62.6193   85.7660    8.9730 C.2     1  UNL1        0.2355
     18 C          62.4113   85.8328   10.4570 C.2     1  UNL1        0.0823
     19 C          63.0686   84.6328   11.0718 C.3     1  UNL1        0.1973
     20 C          62.4313   84.3907   14.9702 C.3     1  UNL1        0.2520
     21 O          62.5729   84.9803   13.5983 O.2     1  UNL1       -0.4746
     22 N          64.3436   91.2729   12.1180 N.pl3   1  UNL1       -0.2127
     23 H          64.5016   91.0629   13.0668 H       1  UNL1        0.1738
     24 S          65.1601   92.3317   11.4381 S.O2    1  UNL1        0.0758
     25 O          64.8935   91.6852   10.1112 O.2     1  UNL1       -0.1499
     26 O          65.4267   92.9782   12.7651 O.2     1  UNL1       -0.1499
     27 C          65.9766   93.3906   10.7583 C.ar    1  UNL1        0.1524
     28 C          65.5237   94.8203   10.7864 C.ar    1  UNL1        0.0225
     29 C          66.3401   95.8792   10.1066 C.ar    1  UNL1        0.0015
     30 C          67.6095   95.5085    9.3987 C.ar    1  UNL1        0.0024
     31 C          68.0624   94.0787    9.3706 C.ar    1  UNL1        0.0310
     32 C          67.2459   93.0198   10.0504 C.ar    1  UNL1        0.1589
     33 F          67.6989   91.5901   10.0223 F       1  UNL1       -0.2027
@<TRIPOS>BOND
     1    20    21    1
     2    21    11    1
     3    11    12    2
     4    12    13    1
     5    13    14    2
     6    14    15    1
     7    15    16    2
     8    16    17    1
     9    17    18    2
    10    18     9    1
    11     9    10    2
    12     9     1    1
    13     1     2   ar
    14     2     3    1
    15     2     4   ar
    16     4     5   ar
    17     5     6   ar
    18     6    22    1
    19    22    24    1
    20    24    25    2
    21    24    26    2
    22    24    27    1
    23    27    28   ar
    24    28    29   ar
    25    29    30   ar
    26    30    31   ar
    27    31    32   ar
    28    32    33    1
    29     6     7   ar
    30     7     8    1
    31    18    19    1
    32    19    11    1
    33    19    15    1
    34     7     1   ar
    35    32    27   ar
    36    22    23    1
@<TRIPOS>MOLECULE
*****
 33 36 0 0 0
SMALL
GASTEIGER

@<TRIPOS>ATOM
      1 C          64.0138   88.3904   15.4985 C.ar    1  UNL1        0.0949
      2 C          63.1729   88.8513   16.6519 C.ar    1  UNL1        0.1454
      3 F          62.9498   90.3172   16.8790 F       1  UNL1       -0.2040
      4 C          62.5550   87.8463   17.5783 C.ar    1  UNL1        0.0312
      5 C          62.7781   86.3805   17.3513 C.ar    1  UNL1        0.0204
      6 C          63.6190   85.9196   16.1978 C.ar    1  UNL1        0.0924
      7 C          64.2368   86.9246   15.2715 C.ar    1  UNL1        0.1598
      8 F          65.0777   86.4638   14.1179 F       1  UNL1       -0.2026
      9 C          64.6317   89.3955   14.5720 C.2     1  UNL1        0.2007
     10 O          65.8882   90.1105   14.9715 O.2     1  UNL1       -0.2866
     11 C          65.2476   92.0062   12.5045 C.2     1  UNL1        0.1360
     12 C          65.3336   93.0494   11.4300 C.2     1  UNL1        0.0837
     13 C          64.4672   92.9428   10.2102 C.2     1  UNL1        0.2385
     14 N          63.5149   91.7931   10.0648 N.2     1  UNL1       -0.0338
     15 C          63.4289   90.7499   11.1392 C.2     1  UNL1        0.3626
     16 N          62.5911   89.5129   11.2724 N.2     1  UNL1       -0.0341
     17 C          62.9397   88.8549   12.5745 C.2     1  UNL1        0.2355
     18 C          63.9929   89.6853   13.2461 C.2     1  UNL1        0.0823
     19 C          64.2953   90.8565   12.3590 C.3     1  UNL1        0.1973
     20 C          66.5811   93.4574   14.1974 C.3     1  UNL1        0.2520
     21 O          66.1140   92.1128   13.7243 O.2     1  UNL1       -0.4746
     22 N          63.8420   84.4538   15.9708 N.pl3   1  UNL1       -0.2127
     23 H          64.0869   83.8705   16.7252 H       1  UNL1        0.1738
     24 S          63.6919   83.8766   14.5944 S.O2    1  UNL1        0.0758
     25 O          65.1252   83.4353   14.6232 O.2     1  UNL1       -0.1499
     26 O          62.2586   84.3180   14.5657 O.2     1  UNL1       -0.1499
     27 C          63.5418   83.2996   13.2181 C.ar    1  UNL1        0.1524
     28 C          63.9455   84.1052   12.0189 C.ar    1  UNL1        0.0225
     29 C          63.7954   83.5282   10.6425 C.ar    1  UNL1        0.0015
     30 C          63.2415   82.1455   10.4652 C.ar    1  UNL1        0.0024
     31 C          62.8378   81.3399   11.6644 C.ar    1  UNL1        0.0310
     32 C          62.9879   81.9169   13.0408 C.ar    1  UNL1        0.1589
     33 F          62.5841   81.1113   14.2400 F       1  UNL1       -0.2027
@<TRIPOS>BOND
     1    20    21    1
     2    21    11    1
     3    11    12    2
     4    12    13    1
     5    13    14    2
     6    14    15    1
     7    15    16    2
     8    16    17    1
     9    17    18    2
    10    18     9    1
    11     9    10    2
    12     9     1    1
    13     1     2   ar
    14     2     3    1
    15     2     4   ar
    16     4     5   ar
    17     5     6   ar
    18     6    22    1
    19    22    24    1
    20    24    25    2
    21    24    26    2
    22    24    27    1
    23    27    28   ar
    24    28    29   ar
    25    29    30   ar
    26    30    31   ar
    27    31    32   ar
    28    32    33    1
    29     6     7   ar
    30     7     8    1
    31    18    19    1
    32    19    11    1
    33    19    15    1
    34     7     1   ar
    35    32    27   ar
    36    22    23    1
@<TRIPOS>MOLECULE
*****
 33 36 0 0 0
SMALL
GASTEIGER

@<TRIPOS>ATOM
      1 C          63.2574   83.6054   11.4336 C.ar    1  UNL1        0.0949
      2 C          63.1476   82.1139   11.3172 C.ar    1  UNL1        0.1454
      3 F          62.7453   81.4910   10.0133 F       1  UNL1       -0.2040
      4 C          63.4400   81.2455   12.5047 C.ar    1  UNL1        0.0312
      5 C          63.8422   81.8684   13.8086 C.ar    1  UNL1        0.0204
      6 C          63.9520   83.3599   13.9250 C.ar    1  UNL1        0.0924
      7 C          63.6596   84.2283   12.7374 C.ar    1  UNL1        0.1598
      8 F          63.7695   85.7198   12.8538 F       1  UNL1       -0.2026
      9 C          62.9650   84.4739   10.2460 C.2     1  UNL1        0.2007
     10 O          63.6590   84.2185    8.9410 O.2     1  UNL1       -0.2866
     11 C          60.9760   85.7445    7.8171 C.2     1  UNL1        0.1360
     12 C          60.0078   86.4748    6.9343 C.2     1  UNL1        0.0837
     13 C          59.1782   87.5921    7.4940 C.2     1  UNL1        0.2385
     14 N          59.3168   87.9792    8.9366 N.2     1  UNL1       -0.0338
     15 C          60.2849   87.2489    9.8194 C.2     1  UNL1        0.3626
     16 N          60.6363   87.4057   11.2692 N.2     1  UNL1       -0.0341
     17 C          61.6830   86.3853   11.6055 C.2     1  UNL1        0.2355
     18 C          61.9785   85.5978   10.3635 C.2     1  UNL1        0.0823
     19 C          61.1145   86.1316    9.2596 C.3     1  UNL1        0.1973
     20 C          61.7530   84.3159    5.7909 C.3     1  UNL1        0.2520
     21 O          61.8056   84.6272    7.2573 O.2     1  UNL1       -0.4746
     22 N          64.3543   83.9828   15.2289 N.pl3   1  UNL1       -0.2127
     23 H          64.7706   83.4314   15.9302 H       1  UNL1        0.1738
     24 S          64.1222   85.4459   15.4643 S.O2    1  UNL1        0.0758
     25 O          65.5716   85.7197   15.1919 O.2     1  UNL1       -0.1499
     26 O          62.6727   85.1721   15.7366 O.2     1  UNL1       -0.1499
     27 C          63.8899   86.9090   15.6997 C.ar    1  UNL1        0.1524
     28 C          64.3052   87.9106   14.6631 C.ar    1  UNL1        0.0225
     29 C          64.0730   89.3737   14.8984 C.ar    1  UNL1        0.0015
     30 C          63.4256   89.8353   16.1703 C.ar    1  UNL1        0.0024
     31 C          63.0103   88.8337   17.2068 C.ar    1  UNL1        0.0310
     32 C          63.2425   87.3705   16.9715 C.ar    1  UNL1        0.1589
     33 F          62.8271   86.3690   18.0081 F       1  UNL1       -0.2027
@<TRIPOS>BOND
     1    20    21    1
     2    21    11    1
     3    11    12    2
     4    12    13    1
     5    13    14    2
     6    14    15    1
     7    15    16    2
     8    16    17    1
     9    17    18    2
    10    18     9    1
    11     9    10    2
    12     9     1    1
    13     1     2   ar
    14     2     3    1
    15     2     4   ar
    16     4     5   ar
    17     5     6   ar
    18     6    22    1
    19    22    24    1
    20    24    25    2
    21    24    26    2
    22    24    27    1
    23    27    28   ar
    24    28    29   ar
    25    29    30   ar
    26    30    31   ar
    27    31    32   ar
    28    32    33    1
    29     6     7   ar
    30     7     8    1
    31    18    19    1
    32    19    11    1
    33    19    15    1
    34     7     1   ar
    35    32    27   ar
    36    22    23    1
@<TRIPOS>MOLECULE
*****
 33 36 0 0 0
SMALL
GASTEIGER

@<TRIPOS>ATOM
      1 C          61.7396   89.2385   10.2503 C.ar    1  UNL1        0.0949
      2 C          60.4307   89.4362    9.5448 C.ar    1  UNL1        0.1454
      3 F          59.8423   90.8109    9.4271 F       1  UNL1       -0.2040
      4 C          59.7102   88.2591    8.9572 C.ar    1  UNL1        0.0312
      5 C          60.2986   86.8844    9.0749 C.ar    1  UNL1        0.0204
      6 C          61.6076   86.6867    9.7804 C.ar    1  UNL1        0.0924
      7 C          62.3280   87.8638   10.3680 C.ar    1  UNL1        0.1598
      8 F          63.6370   87.6662   11.0735 F       1  UNL1       -0.2026
      9 C          62.4601   90.4156   10.8380 C.2     1  UNL1        0.2007
     10 O          62.8288   91.5802    9.9676 O.2     1  UNL1       -0.2866
     11 C          65.0382   92.0259   12.3315 C.2     1  UNL1        0.1360
     12 C          66.0832   92.6317   13.2210 C.2     1  UNL1        0.0837
     13 C          66.0559   92.3680   14.6973 C.2     1  UNL1        0.2385
     14 N          64.9837   91.4986   15.2843 N.2     1  UNL1       -0.0338
     15 C          63.9388   90.8929   14.3948 C.2     1  UNL1        0.3626
     16 N          62.7679   90.0014   14.6849 N.2     1  UNL1       -0.0341
     17 C          62.0714   89.7141   13.3879 C.2     1  UNL1        0.2355
     18 C          62.8119   90.4280   12.2961 C.2     1  UNL1        0.0823
     19 C          63.9661   91.1565   12.9184 C.3     1  UNL1        0.1973
     20 C          65.9542   93.3636   10.3013 C.3     1  UNL1        0.2520
     21 O          65.0655   92.2896   10.8551 O.2     1  UNL1       -0.4746
     22 N          62.1960   85.3119    9.8981 N.pl3   1  UNL1       -0.2127
     23 H          62.3421   84.7682    9.0905 H       1  UNL1        0.1738
     24 S          62.5618   84.7657   11.2464 S.O2    1  UNL1        0.0758
     25 O          61.4854   85.5993   11.8761 O.2     1  UNL1       -0.1499
     26 O          63.6381   83.9321   10.6166 O.2     1  UNL1       -0.1499
     27 C          62.9277   84.2194   12.5946 C.ar    1  UNL1        0.1524
     28 C          62.6639   82.7783   12.9167 C.ar    1  UNL1        0.0225
     29 C          63.0297   82.2319   14.2649 C.ar    1  UNL1        0.0015
     30 C          63.6594   83.1266   15.2910 C.ar    1  UNL1        0.0024
     31 C          63.9233   84.5677   14.9689 C.ar    1  UNL1        0.0310
     32 C          63.5574   85.1141   13.6207 C.ar    1  UNL1        0.1589
     33 F          63.8213   86.5552   13.2987 F       1  UNL1       -0.2027
@<TRIPOS>BOND
     1    20    21    1
     2    21    11    1
     3    11    12    2
     4    12    13    1
     5    13    14    2
     6    14    15    1
     7    15    16    2
     8    16    17    1
     9    17    18    2
    10    18     9    1
    11     9    10    2
    12     9     1    1
    13     1     2   ar
    14     2     3    1
    15     2     4   ar
    16     4     5   ar
    17     5     6   ar
    18     6    22    1
    19    22    24    1
    20    24    25    2
    21    24    26    2
    22    24    27    1
    23    27    28   ar
    24    28    29   ar
    25    29    30   ar
    26    30    31   ar
    27    31    32   ar
    28    32    33    1
    29     6     7   ar
    30     7     8    1
    31    18    19    1
    32    19    11    1
    33    19    15    1
    34     7     1   ar
    35    32    27   ar
    36    22    23    1
@<TRIPOS>MOLECULE
*****
 33 36 0 0 0
SMALL
GASTEIGER

@<TRIPOS>ATOM
      1 C          62.1820   88.6246   11.1780 C.ar    1  UNL1        0.0949
      2 C          62.1635   89.4436    9.9214 C.ar    1  UNL1        0.1454
      3 F          61.6124   88.8603    8.6541 F       1  UNL1       -0.2040
      4 C          62.6961   90.8457    9.9322 C.ar    1  UNL1        0.0312
      5 C          63.2472   91.4290   11.1995 C.ar    1  UNL1        0.0204
      6 C          63.2657   90.6101   12.4561 C.ar    1  UNL1        0.0924
      7 C          62.7331   89.2079   12.4453 C.ar    1  UNL1        0.1598
      8 F          62.7515   88.3889   13.7019 F       1  UNL1       -0.2026
      9 C          61.6494   87.2224   11.1673 C.2     1  UNL1        0.2007
     10 O          60.3923   86.8919   11.9159 O.2     1  UNL1       -0.2866
     11 C          63.1431   84.4508   12.4153 C.2     1  UNL1        0.1360
     12 C          63.8665   83.1704   12.7106 C.2     1  UNL1        0.0837
     13 C          64.4701   82.3747   11.5915 C.2     1  UNL1        0.2385
     14 N          64.3503   82.8594   10.1770 N.2     1  UNL1       -0.0338
     15 C          63.6269   84.1398    9.8817 C.2     1  UNL1        0.3626
     16 N          63.3504   84.8632    8.5971 N.2     1  UNL1       -0.0341
     17 C          62.5760   86.1060    8.9223 C.2     1  UNL1        0.2355
     18 C          62.3738   86.1507   10.4079 C.2     1  UNL1        0.0823
     19 C          63.0233   84.9355   11.0009 C.3     1  UNL1        0.1973
     20 C          62.2941   84.6013   14.8661 C.3     1  UNL1        0.2520
     21 O          62.5395   85.2466   13.5345 O.2     1  UNL1       -0.4746
     22 N          63.8168   91.1934   13.7234 N.pl3   1  UNL1       -0.2127
     23 H          63.2155   91.3865   14.4786 H       1  UNL1        0.1738
     24 S          65.2841   91.4824   13.8400 S.O2    1  UNL1        0.0758
     25 O          65.4911   90.1590   14.5150 O.2     1  UNL1       -0.1499
     26 O          65.0770   92.8058   13.1649 O.2     1  UNL1       -0.1499
     27 C          66.7513   91.7716   13.9565 C.ar    1  UNL1        0.1524
     28 C          67.6516   91.5707   12.7736 C.ar    1  UNL1        0.0225
     29 C          69.1188   91.8598   12.8901 C.ar    1  UNL1        0.0015
     30 C          69.6859   92.3498   14.1895 C.ar    1  UNL1        0.0024
     31 C          68.7856   92.5506   15.3724 C.ar    1  UNL1        0.0310
     32 C          67.3183   92.2615   15.2559 C.ar    1  UNL1        0.1589
     33 F          66.4181   92.4623   16.4388 F       1  UNL1       -0.2027
@<TRIPOS>BOND
     1    20    21    1
     2    21    11    1
     3    11    12    2
     4    12    13    1
     5    13    14    2
     6    14    15    1
     7    15    16    2
     8    16    17    1
     9    17    18    2
    10    18     9    1
    11     9    10    2
    12     9     1    1
    13     1     2   ar
    14     2     3    1
    15     2     4   ar
    16     4     5   ar
    17     5     6   ar
    18     6    22    1
    19    22    24    1
    20    24    25    2
    21    24    26    2
    22    24    27    1
    23    27    28   ar
    24    28    29   ar
    25    29    30   ar
    26    30    31   ar
    27    31    32   ar
    28    32    33    1
    29     6     7   ar
    30     7     8    1
    31    18    19    1
    32    19    11    1
    33    19    15    1
    34     7     1   ar
    35    32    27   ar
    36    22    23    1
