@<TRIPOS>MOLECULE
*****
 39 42 0 0 0
SMALL
GASTEIGER

@<TRIPOS>ATOM
      1 N          64.4642   91.0617   12.7796 N.pl3   1  UNL1       -0.3043
      2 C          64.4570   89.5639   12.8602 C.3     1  UNL1        0.1123
      3 C          63.4976   88.7723   12.0218 C.3     1  UNL1        0.1149
      4 N          62.5455   89.4785   11.1027 N.am    1  UNL1       -0.2747
      5 C          61.5861   88.6870   10.2643 C.2     1  UNL1        0.2442
      6 O          60.6340   89.3932    9.3452 O.2     1  UNL1       -0.2731
      7 C          62.5527   90.9763   11.0221 C.3     1  UNL1        0.1149
      8 C          63.5121   91.7679   11.8606 C.3     1  UNL1        0.1123
      9 C          68.3017   94.2281   16.1334 C.3     1  UNL1        0.0310
     10 C          67.3423   93.4365   15.2950 C.ar    1  UNL1       -0.0220
     11 C          66.5264   92.3433   15.9188 C.ar    1  UNL1       -0.0030
     12 C          65.5671   91.5517   15.0804 C.ar    1  UNL1        0.0139
     13 C          65.4236   91.8533   13.6181 C.ar    1  UNL1        0.0451
     14 C          66.2395   92.9465   12.9942 C.ar    1  UNL1        0.0048
     15 C          67.1989   93.7381   13.8327 C.ar    1  UNL1       -0.0060
     16 C          66.0960   93.2481   11.5318 C.3     1  UNL1        0.0748
     17 N          65.2450   94.3990   11.0834 N.3     1  UNL1       -0.3188
     18 H          64.8433   94.8626   11.8983 H       1  UNL1        0.1191
     19 H          64.4950   94.0541   10.4843 H       1  UNL1        0.1191
     20 C          66.8036   92.3988   10.5179 C.3     1  UNL1        0.0201
     21 C          67.8158   93.0153    9.5984 C.3     1  UNL1        0.0017
     22 C          68.8276   92.1494    8.9082 C.3     1  UNL1        0.0001
     23 C          67.8161   94.4976    9.3690 C.3     1  UNL1        0.0001
     24 C          61.5789   87.1892   10.3449 C.3     1  UNL1        0.1564
     25 N          61.6272   86.3702    9.0890 N.am    1  UNL1       -0.2727
     26 C          62.8355   85.6741    8.5364 C.3     1  UNL1        0.0943
     27 C          62.4308   84.9773    7.2712 C.3     1  UNL1        0.0311
     28 C          60.9723   85.2428    7.0419 C.3     1  UNL1        0.0870
     29 C          60.4757   86.1037    8.1654 C.2     1  UNL1        0.2260
     30 O          59.0738   86.6093    8.3354 O.2     1  UNL1       -0.2749
     31 C          61.5233   86.5102   11.6813 C.3     1  UNL1        0.0564
     32 C          62.3254   85.2663   11.9245 C.ar    1  UNL1       -0.0094
     33 C          62.1110   84.0558   11.0651 C.ar    1  UNL1       -0.0025
     34 C          62.9132   82.8117   11.3083 C.ar    1  UNL1        0.0111
     35 C          63.9296   82.7783   12.4108 C.ar    1  UNL1        0.0585
     36 CL         64.7317   81.5344   12.6540 Cl      1  UNL1       -0.0822
     37 C          64.1440   83.9890   13.2702 C.ar    1  UNL1        0.0225
     38 C          63.3419   85.2329   13.0270 C.ar    1  UNL1        0.0546
     39 CL         63.5563   86.4435   13.8864 Cl      1  UNL1       -0.0825
@<TRIPOS>BOND
     1     9    10    1
     2    10    11   ar
     3    11    12   ar
     4    12    13   ar
     5    13     1    1
     6     1     2    1
     7     2     3    1
     8     3     4    1
     9     4     5   am
    10     5     6    2
    11     5    24    1
    12    24    31    1
    13    31    32    1
    14    32    33   ar
    15    33    34   ar
    16    34    35   ar
    17    35    36    1
    18    35    37   ar
    19    37    38   ar
    20    38    39    1
    21    24    25    1
    22    25    26    1
    23    26    27    1
    24    27    28    1
    25    28    29    1
    26    29    30    2
    27     4     7    1
    28     7     8    1
    29    13    14   ar
    30    14    16    1
    31    16    17    1
    32    16    20    1
    33    20    21    1
    34    21    22    1
    35    21    23    1
    36    14    15   ar
    37    15    10   ar
    38     8     1    1
    39    38    32   ar
    40    29    25   am
    41    17    18    1
    42    17    19    1
@<TRIPOS>MOLECULE
*****
 39 42 0 0 0
SMALL
GASTEIGER

@<TRIPOS>ATOM
      1 N          61.6457   86.2282    9.5031 N.pl3   1  UNL1       -0.3043
      2 C          61.3021   85.9122   10.9286 C.3     1  UNL1        0.1123
      3 C          62.1201   84.9147   11.6940 C.3     1  UNL1        0.1149
      4 N          63.2818   84.2331   11.0338 N.am    1  UNL1       -0.2747
      5 C          64.0998   83.2356   11.7991 C.2     1  UNL1        0.2442
      6 O          65.2615   82.5540   11.1390 O.2     1  UNL1       -0.2731
      7 C          63.6254   84.5490    9.6083 C.3     1  UNL1        0.1149
      8 C          62.8074   85.5466    8.8430 C.3     1  UNL1        0.1123
      9 C          58.3735   90.2183    6.4418 C.3     1  UNL1        0.0310
     10 C          59.1916   89.2208    7.2071 C.ar    1  UNL1       -0.0220
     11 C          59.3518   87.8238    6.6850 C.ar    1  UNL1       -0.0030
     12 C          60.1698   86.8262    7.4503 C.ar    1  UNL1        0.0139
     13 C          60.8277   87.2257    8.7378 C.ar    1  UNL1        0.0451
     14 C          60.6675   88.6227    9.2599 C.ar    1  UNL1        0.0048
     15 C          59.8494   89.6202    8.4946 C.ar    1  UNL1       -0.0060
     16 C          61.3253   89.0222   10.5475 C.3     1  UNL1        0.0748
     17 N          60.5031   89.1813   11.7920 N.3     1  UNL1       -0.3188
     18 H          59.5255   88.9805   11.5815 H       1  UNL1        0.1191
     19 H          60.5874   90.1381   12.1352 H       1  UNL1        0.1191
     20 C          62.8053   89.2627   10.5905 C.3     1  UNL1        0.0201
     21 C          63.3404   90.5482   11.1483 C.3     1  UNL1        0.0017
     22 C          63.6770   90.6505   12.6065 C.3     1  UNL1        0.0001
     23 C          63.5388   91.7314   10.2480 C.3     1  UNL1        0.0001
     24 C          63.7562   82.9197   13.2246 C.3     1  UNL1        0.1564
     25 N          62.6162   81.9952   13.5341 N.am    1  UNL1       -0.2727
     26 C          61.5428   82.2301   14.5553 C.3     1  UNL1        0.0943
     27 C          60.6126   81.0537   14.5292 C.3     1  UNL1        0.0311
     28 C          61.1111   80.0917   13.4918 C.3     1  UNL1        0.0870
     29 C          62.3493   80.6736   12.8768 C.2     1  UNL1        0.2260
     30 O          63.1756   80.0443   11.7946 O.2     1  UNL1       -0.2749
     31 C          64.5526   83.5282   14.3407 C.3     1  UNL1        0.0564
     32 C          64.2156   84.9018   14.8402 C.ar    1  UNL1       -0.0094
     33 C          64.7494   86.1101   14.1297 C.ar    1  UNL1       -0.0025
     34 C          64.4125   87.4838   14.6293 C.ar    1  UNL1        0.0111
     35 C          63.5416   87.6491   15.8393 C.ar    1  UNL1        0.0585
     36 CL         63.2046   89.0227   16.3389 Cl      1  UNL1       -0.0822
     37 C          63.0077   86.4406   16.5499 C.ar    1  UNL1        0.0225
     38 C          63.3447   85.0670   16.0503 C.ar    1  UNL1        0.0546
     39 CL         62.8108   83.8587   16.7608 Cl      1  UNL1       -0.0825
@<TRIPOS>BOND
     1     9    10    1
     2    10    11   ar
     3    11    12   ar
     4    12    13   ar
     5    13     1    1
     6     1     2    1
     7     2     3    1
     8     3     4    1
     9     4     5   am
    10     5     6    2
    11     5    24    1
    12    24    31    1
    13    31    32    1
    14    32    33   ar
    15    33    34   ar
    16    34    35   ar
    17    35    36    1
    18    35    37   ar
    19    37    38   ar
    20    38    39    1
    21    24    25    1
    22    25    26    1
    23    26    27    1
    24    27    28    1
    25    28    29    1
    26    29    30    2
    27     4     7    1
    28     7     8    1
    29    13    14   ar
    30    14    16    1
    31    16    17    1
    32    16    20    1
    33    20    21    1
    34    21    22    1
    35    21    23    1
    36    14    15   ar
    37    15    10   ar
    38     8     1    1
    39    38    32   ar
    40    29    25   am
    41    17    18    1
    42    17    19    1
@<TRIPOS>MOLECULE
*****
 39 42 0 0 0
SMALL
GASTEIGER

@<TRIPOS>ATOM
      1 N          63.3996   85.4964   14.3023 N.pl3   1  UNL1       -0.3043
      2 C          64.0093   86.5264   13.3982 C.3     1  UNL1        0.1123
      3 C          64.1795   87.9378   13.8766 C.3     1  UNL1        0.1149
      4 N          63.7401   88.3193   15.2591 N.am    1  UNL1       -0.2747
      5 C          63.9104   89.7308   15.7375 C.2     1  UNL1        0.2442
      6 O          63.4710   90.1122   17.1200 O.2     1  UNL1       -0.2731
      7 C          63.1305   87.2894   16.1632 C.3     1  UNL1        0.1149
      8 C          62.9602   85.8779   15.6848 C.3     1  UNL1        0.1123
      9 C          62.7186   79.8507   12.3888 C.3     1  UNL1        0.0310
     10 C          62.8889   81.2621   12.8672 C.ar    1  UNL1       -0.0220
     11 C          63.4284   81.5284   14.2412 C.ar    1  UNL1       -0.0030
     12 C          63.5986   82.9398   14.7196 C.ar    1  UNL1        0.0139
     13 C          63.2294   84.0850   13.8239 C.ar    1  UNL1        0.0451
     14 C          62.6898   83.8187   12.4499 C.ar    1  UNL1        0.0048
     15 C          62.5196   82.4073   11.9715 C.ar    1  UNL1       -0.0060
     16 C          62.3205   84.9639   11.5542 C.3     1  UNL1        0.0748
     17 N          61.2602   85.9363   11.9786 N.3     1  UNL1       -0.3188
     18 H          60.9007   85.6689   12.8950 H       1  UNL1        0.1191
     19 H          60.4994   85.9277   11.2992 H       1  UNL1        0.1191
     20 C          63.0116   85.1367   10.2342 C.3     1  UNL1        0.0201
     21 C          62.3747   85.9634    9.1567 C.3     1  UNL1        0.0017
     22 C          62.0195   85.3362    7.8413 C.3     1  UNL1        0.0001
     23 C          62.0929   87.4174    9.3947 C.3     1  UNL1        0.0001
     24 C          64.5200   90.7607   14.8334 C.3     1  UNL1        0.1564
     25 N          65.8071   91.4285   15.2177 N.am    1  UNL1       -0.2727
     26 C          67.1486   91.1829   14.5930 C.3     1  UNL1        0.0943
     27 C          68.1492   92.0616   15.2832 C.3     1  UNL1        0.0311
     28 C          67.4262   92.8503   16.3345 C.3     1  UNL1        0.0870
     29 C          65.9787   92.4590   16.2940 C.2     1  UNL1        0.2260
     30 O          64.8934   93.0028   17.1751 O.2     1  UNL1       -0.2749
     31 C          63.8426   91.1230   13.5450 C.3     1  UNL1        0.0564
     32 C          64.5682   91.9451   12.5215 C.ar    1  UNL1       -0.0094
     33 C          65.5444   92.9966   12.9590 C.ar    1  UNL1       -0.0025
     34 C          66.2700   93.8188   11.9355 C.ar    1  UNL1        0.0111
     35 C          66.0194   93.5894   10.4745 C.ar    1  UNL1        0.0585
     36 CL         66.7450   94.4115    9.4510 Cl      1  UNL1       -0.0822
     37 C          65.0432   92.5379   10.0370 C.ar    1  UNL1        0.0225
     38 C          64.3176   91.7157   11.0605 C.ar    1  UNL1        0.0546
     39 CL         63.3415   90.6643   10.6230 Cl      1  UNL1       -0.0825
@<TRIPOS>BOND
     1     9    10    1
     2    10    11   ar
     3    11    12   ar
     4    12    13   ar
     5    13     1    1
     6     1     2    1
     7     2     3    1
     8     3     4    1
     9     4     5   am
    10     5     6    2
    11     5    24    1
    12    24    31    1
    13    31    32    1
    14    32    33   ar
    15    33    34   ar
    16    34    35   ar
    17    35    36    1
    18    35    37   ar
    19    37    38   ar
    20    38    39    1
    21    24    25    1
    22    25    26    1
    23    26    27    1
    24    27    28    1
    25    28    29    1
    26    29    30    2
    27     4     7    1
    28     7     8    1
    29    13    14   ar
    30    14    16    1
    31    16    17    1
    32    16    20    1
    33    20    21    1
    34    21    22    1
    35    21    23    1
    36    14    15   ar
    37    15    10   ar
    38     8     1    1
    39    38    32   ar
    40    29    25   am
    41    17    18    1
    42    17    19    1
@<TRIPOS>MOLECULE
*****
 39 42 0 0 0
SMALL
GASTEIGER

@<TRIPOS>ATOM
      1 N          63.2055   86.3239   12.9232 N.pl3   1  UNL1       -0.3043
      2 C          64.2826   86.9791   13.7359 C.3     1  UNL1        0.1123
      3 C          64.5746   88.4393   13.5560 C.3     1  UNL1        0.1149
      4 N          63.7895   89.2444   12.5633 N.am    1  UNL1       -0.2747
      5 C          64.0815   90.7047   12.3834 C.2     1  UNL1        0.2442
      6 O          63.2964   91.5098   11.3908 O.2     1  UNL1       -0.2731
      7 C          62.7124   88.5892   11.7506 C.3     1  UNL1        0.1149
      8 C          62.4204   87.1290   11.9306 C.3     1  UNL1        0.1123
      9 C          62.0375   80.4828   13.6429 C.3     1  UNL1        0.0310
     10 C          62.3295   81.9431   13.4630 C.ar    1  UNL1       -0.0220
     11 C          62.2547   82.5603   12.0979 C.ar    1  UNL1       -0.0030
     12 C          62.5467   84.0205   11.9180 C.ar    1  UNL1        0.0139
     13 C          62.9135   84.8636   13.1031 C.ar    1  UNL1        0.0451
     14 C          62.9883   84.2465   14.4682 C.ar    1  UNL1        0.0048
     15 C          62.6963   82.7862   14.6481 C.ar    1  UNL1       -0.0060
     16 C          63.3552   85.0896   15.6534 C.3     1  UNL1        0.0748
     17 N          64.7947   85.2489   16.0437 N.3     1  UNL1       -0.3188
     18 H          65.3823   84.7199   15.3992 H       1  UNL1        0.1191
     19 H          64.9305   84.8996   16.9923 H       1  UNL1        0.1191
     20 C          62.2825   85.7732   16.4483 C.3     1  UNL1        0.0201
     21 C          62.6424   86.8705   17.4056 C.3     1  UNL1        0.0017
     22 C          62.9286   88.2503   16.8916 C.3     1  UNL1        0.0001
     23 C          62.7162   86.5880   18.8769 C.3     1  UNL1        0.0001
     24 C          65.1586   91.3598   13.1961 C.3     1  UNL1        0.1564
     25 N          64.9244   91.6628   14.6465 N.am    1  UNL1       -0.2727
     26 C          63.7220   91.2610   15.4482 C.3     1  UNL1        0.0943
     27 C          63.9060   91.7706   16.8469 C.3     1  UNL1        0.0311
     28 C          65.2222   92.4875   16.9096 C.3     1  UNL1        0.0870
     29 C          65.8515   92.4209   15.5497 C.2     1  UNL1        0.2260
     30 O          67.1756   93.0091   15.1612 O.2     1  UNL1       -0.2749
     31 C          66.4699   91.7120   12.5585 C.3     1  UNL1        0.0564
     32 C          66.5881   92.9512   11.7216 C.ar    1  UNL1       -0.0094
     33 C          65.9776   94.2369   12.1950 C.ar    1  UNL1       -0.0025
     34 C          66.0958   95.4762   11.3581 C.ar    1  UNL1        0.0111
     35 C          66.8244   95.4296   10.0478 C.ar    1  UNL1        0.0585
     36 CL         66.9426   96.6688    9.2109 Cl      1  UNL1       -0.0822
     37 C          67.4349   94.1438    9.5744 C.ar    1  UNL1        0.0225
     38 C          67.3167   92.9046   10.4113 C.ar    1  UNL1        0.0546
     39 CL         67.9272   91.6189    9.9379 Cl      1  UNL1       -0.0825
@<TRIPOS>BOND
     1     9    10    1
     2    10    11   ar
     3    11    12   ar
     4    12    13   ar
     5    13     1    1
     6     1     2    1
     7     2     3    1
     8     3     4    1
     9     4     5   am
    10     5     6    2
    11     5    24    1
    12    24    31    1
    13    31    32    1
    14    32    33   ar
    15    33    34   ar
    16    34    35   ar
    17    35    36    1
    18    35    37   ar
    19    37    38   ar
    20    38    39    1
    21    24    25    1
    22    25    26    1
    23    26    27    1
    24    27    28    1
    25    28    29    1
    26    29    30    2
    27     4     7    1
    28     7     8    1
    29    13    14   ar
    30    14    16    1
    31    16    17    1
    32    16    20    1
    33    20    21    1
    34    21    22    1
    35    21    23    1
    36    14    15   ar
    37    15    10   ar
    38     8     1    1
    39    38    32   ar
    40    29    25   am
    41    17    18    1
    42    17    19    1
@<TRIPOS>MOLECULE
*****
 39 42 0 0 0
SMALL
GASTEIGER

@<TRIPOS>ATOM
      1 N          57.2874   95.3744   -1.1908 N.pl3   1  UNL1       -0.3043
      2 C          57.7875   93.9943   -0.8825 C.3     1  UNL1        0.1123
      3 C          58.9965   93.8114   -0.0136 C.3     1  UNL1        0.1149
      4 N          59.7053   95.0086    0.5470 N.am    1  UNL1       -0.2747
      5 C          60.9142   94.8256    1.4159 C.2     1  UNL1        0.2442
      6 O          61.6230   96.0228    1.9765 O.2     1  UNL1       -0.2731
      7 C          59.2052   96.3887    0.2387 C.3     1  UNL1        0.1149
      8 C          57.9962   96.5716   -0.6303 C.3     1  UNL1        0.1123
      9 C          52.4517   96.1062   -4.6665 C.3     1  UNL1        0.0310
     10 C          53.6606   95.9232   -3.7976 C.ar    1  UNL1       -0.0220
     11 C          53.5580   96.1333   -2.3159 C.ar    1  UNL1       -0.0030
     12 C          54.7670   95.9504   -1.4470 C.ar    1  UNL1        0.0139
     13 C          56.0785   95.5574   -2.0597 C.ar    1  UNL1        0.0451
     14 C          56.1810   95.3473   -3.5414 C.ar    1  UNL1        0.0048
     15 C          54.9721   95.5303   -4.4103 C.ar    1  UNL1       -0.0060
     16 C          57.4926   94.9543   -4.1542 C.3     1  UNL1        0.0748
     17 N          58.4894   96.0092   -4.5331 N.3     1  UNL1       -0.3188
     18 H          58.1134   96.9297   -4.3056 H       1  UNL1        0.1191
     19 H          58.6764   95.9563   -5.5344 H       1  UNL1        0.1191
     20 C          57.8073   93.5065   -4.3881 C.3     1  UNL1        0.0201
     21 C          56.6965   92.5022   -4.4757 C.3     1  UNL1        0.0017
     22 C          56.2766   91.7398   -3.2540 C.3     1  UNL1        0.0001
     23 C          56.0056   92.2603   -5.7849 C.3     1  UNL1        0.0001
     24 C          61.4143   93.4455    1.7242 C.3     1  UNL1        0.1564
     25 N          60.8534   92.6877    2.8909 N.am    1  UNL1       -0.2727
     26 C          59.4325   92.7314    3.3697 C.3     1  UNL1        0.0943
     27 C          59.3157   91.8239    4.5583 C.3     1  UNL1        0.0311
     28 C          60.6645   91.2193    4.8141 C.3     1  UNL1        0.0870
     29 C          61.6147   91.7532    3.7836 C.2     1  UNL1        0.2260
     30 O          63.0708   91.4123    3.6665 O.2     1  UNL1       -0.2749
     31 C          62.4755   92.8231    0.8659 C.3     1  UNL1        0.0564
     32 C          63.1704   93.6431   -0.1803 C.ar    1  UNL1       -0.0094
     33 C          62.7227   93.5702   -1.6100 C.ar    1  UNL1       -0.0025
     34 C          63.4177   94.3902   -2.6563 C.ar    1  UNL1        0.0111
     35 C          64.5603   95.2832   -2.2728 C.ar    1  UNL1        0.0585
     36 CL         65.2552   96.1032   -3.3190 Cl      1  UNL1       -0.0822
     37 C          65.0079   95.3561   -0.8429 C.ar    1  UNL1        0.0225
     38 C          64.3130   94.5361    0.2033 C.ar    1  UNL1        0.0546
     39 CL         64.7606   94.6091    1.6330 Cl      1  UNL1       -0.0825
@<TRIPOS>BOND
     1     9    10    1
     2    10    11   ar
     3    11    12   ar
     4    12    13   ar
     5    13     1    1
     6     1     2    1
     7     2     3    1
     8     3     4    1
     9     4     5   am
    10     5     6    2
    11     5    24    1
    12    24    31    1
    13    31    32    1
    14    32    33   ar
    15    33    34   ar
    16    34    35   ar
    17    35    36    1
    18    35    37   ar
    19    37    38   ar
    20    38    39    1
    21    24    25    1
    22    25    26    1
    23    26    27    1
    24    27    28    1
    25    28    29    1
    26    29    30    2
    27     4     7    1
    28     7     8    1
    29    13    14   ar
    30    14    16    1
    31    16    17    1
    32    16    20    1
    33    20    21    1
    34    21    22    1
    35    21    23    1
    36    14    15   ar
    37    15    10   ar
    38     8     1    1
    39    38    32   ar
    40    29    25   am
    41    17    18    1
    42    17    19    1
@<TRIPOS>MOLECULE
*****
 39 42 0 0 0
SMALL
GASTEIGER

@<TRIPOS>ATOM
      1 N          58.7041   94.2161   -2.5239 N.pl3   1  UNL1       -0.3043
      2 C          59.4367   93.0491   -1.9312 C.3     1  UNL1        0.1123
      3 C          60.2329   93.2243   -0.6721 C.3     1  UNL1        0.1149
      4 N          60.2966   94.5666   -0.0057 N.am    1  UNL1       -0.2747
      5 C          61.0928   94.7418    1.2534 C.2     1  UNL1        0.2442
      6 O          61.1564   96.0841    1.9199 O.2     1  UNL1       -0.2731
      7 C          59.5640   95.7336   -0.5983 C.3     1  UNL1        0.1149
      8 C          58.7678   95.5584   -1.8574 C.3     1  UNL1        0.1123
      9 C          55.5193   93.5152   -7.5603 C.3     1  UNL1        0.0310
     10 C          56.3155   93.6904   -6.3012 C.ar    1  UNL1       -0.0220
     11 C          57.7938   93.9333   -6.3763 C.ar    1  UNL1       -0.0030
     12 C          58.5900   94.1086   -5.1172 C.ar    1  UNL1        0.0139
     13 C          57.9079   94.0409   -3.7830 C.ar    1  UNL1        0.0451
     14 C          56.4297   93.7980   -3.7078 C.ar    1  UNL1        0.0048
     15 C          55.6335   93.6228   -4.9669 C.ar    1  UNL1       -0.0060
     16 C          55.7475   93.7304   -2.3736 C.3     1  UNL1        0.0748
     17 N          55.5769   92.4089   -1.6847 N.3     1  UNL1       -0.3188
     18 H          55.9800   91.6703   -2.2612 H       1  UNL1        0.1191
     19 H          54.5837   92.2253   -1.5425 H       1  UNL1        0.1191
     20 C          55.2361   94.9841   -1.7283 C.3     1  UNL1        0.0201
     21 C          54.1839   95.8049   -2.4135 C.3     1  UNL1        0.0017
     22 C          52.7357   95.5929   -2.0854 C.3     1  UNL1        0.0001
     23 C          54.5800   96.8375   -3.4267 C.3     1  UNL1        0.0001
     24 C          61.8254   93.5748    1.8461 C.3     1  UNL1        0.1564
     25 N          61.1785   92.7495    2.9188 N.am    1  UNL1       -0.2727
     26 C          59.7538   92.8573    3.3756 C.3     1  UNL1        0.0943
     27 C          59.5375   91.8460    4.4620 C.3     1  UNL1        0.0311
     28 C          60.8286   91.1131    4.6767 C.3     1  UNL1        0.0870
     29 C          61.8427   91.6715    3.7229 C.2     1  UNL1        0.2260
     30 O          63.2704   91.2294    3.5956 O.2     1  UNL1       -0.2749
     31 C          63.2048   93.2330    1.3662 C.3     1  UNL1        0.0564
     32 C          63.9074   94.1373    0.3974 C.ar    1  UNL1       -0.0094
     33 C          63.7418   93.9285   -1.0787 C.ar    1  UNL1       -0.0025
     34 C          64.4444   94.8329   -2.0476 C.ar    1  UNL1        0.0111
     35 C          65.3125   95.9459   -1.5402 C.ar    1  UNL1        0.0585
     36 CL         66.0151   96.8502   -2.5090 Cl      1  UNL1       -0.0822
     37 C          65.4781   96.1547   -0.0640 C.ar    1  UNL1        0.0225
     38 C          64.7755   95.2504    0.9048 C.ar    1  UNL1        0.0546
     39 CL         64.9411   95.4591    2.3809 Cl      1  UNL1       -0.0825
@<TRIPOS>BOND
     1     9    10    1
     2    10    11   ar
     3    11    12   ar
     4    12    13   ar
     5    13     1    1
     6     1     2    1
     7     2     3    1
     8     3     4    1
     9     4     5   am
    10     5     6    2
    11     5    24    1
    12    24    31    1
    13    31    32    1
    14    32    33   ar
    15    33    34   ar
    16    34    35   ar
    17    35    36    1
    18    35    37   ar
    19    37    38   ar
    20    38    39    1
    21    24    25    1
    22    25    26    1
    23    26    27    1
    24    27    28    1
    25    28    29    1
    26    29    30    2
    27     4     7    1
    28     7     8    1
    29    13    14   ar
    30    14    16    1
    31    16    17    1
    32    16    20    1
    33    20    21    1
    34    21    22    1
    35    21    23    1
    36    14    15   ar
    37    15    10   ar
    38     8     1    1
    39    38    32   ar
    40    29    25   am
    41    17    18    1
    42    17    19    1
@<TRIPOS>MOLECULE
*****
 39 42 0 0 0
SMALL
GASTEIGER

@<TRIPOS>ATOM
      1 N          62.3024   89.7319   11.4759 N.pl3   1  UNL1       -0.3043
      2 C          63.4281   90.6105   11.0168 C.3     1  UNL1        0.1123
      3 C          64.2516   91.3608   12.0212 C.3     1  UNL1        0.1149
      4 N          63.9494   91.2324   13.4848 N.am    1  UNL1       -0.2747
      5 C          64.7730   91.9826   14.4893 C.2     1  UNL1        0.2442
      6 O          64.4708   91.8542   15.9529 O.2     1  UNL1       -0.2731
      7 C          62.8238   90.3538   13.9440 C.3     1  UNL1        0.1149
      8 C          62.0002   89.6035   12.9395 C.3     1  UNL1        0.1123
      9 C          59.0082   86.7310    7.4581 C.3     1  UNL1        0.0310
     10 C          59.8318   87.4812    8.4625 C.ar    1  UNL1       -0.0220
     11 C          59.8509   88.9810    8.4467 C.ar    1  UNL1       -0.0030
     12 C          60.6744   89.7312    9.4512 C.ar    1  UNL1        0.0139
     13 C          61.4788   88.9817   10.4714 C.ar    1  UNL1        0.0451
     14 C          61.4598   87.4819   10.4873 C.ar    1  UNL1        0.0048
     15 C          60.6362   86.7317    9.4828 C.ar    1  UNL1       -0.0060
     16 C          62.2642   86.7323   11.5076 C.3     1  UNL1        0.0748
     17 N          63.3095   87.4474   12.3113 N.3     1  UNL1       -0.3188
     18 H          63.3379   88.4290   12.0357 H       1  UNL1        0.1191
     19 H          64.2201   87.0202   12.1417 H       1  UNL1        0.1191
     20 C          62.0234   85.2677   11.7241 C.3     1  UNL1        0.0201
     21 C          63.1445   84.2881   11.5408 C.3     1  UNL1        0.0017
     22 C          63.5088   83.8141   10.1651 C.3     1  UNL1        0.0001
     23 C          63.9012   83.7825   12.7332 C.3     1  UNL1        0.0001
     24 C          65.8987   92.8612   14.0302 C.3     1  UNL1        0.1564
     25 N          67.1552   92.9570   14.8438 N.am    1  UNL1       -0.2727
     26 C          67.8352   94.2243   15.2700 C.3     1  UNL1        0.0943
     27 C          69.0526   93.8529   16.0637 C.3     1  UNL1        0.0311
     28 C          69.1249   92.3560   16.1281 C.3     1  UNL1        0.0870
     29 C          67.9523   91.8023   15.3742 C.2     1  UNL1        0.2260
     30 O          67.6329   90.3491   15.1841 O.2     1  UNL1       -0.2749
     31 C          65.7679   93.6441   12.7574 C.3     1  UNL1        0.0564
     32 C          66.6380   93.3139   11.5810 C.ar    1  UNL1       -0.0094
     33 C          67.5128   92.0959   11.6137 C.ar    1  UNL1       -0.0025
     34 C          68.3830   91.7657   10.4373 C.ar    1  UNL1        0.0111
     35 C          68.3782   92.6534    9.2282 C.ar    1  UNL1        0.0585
     36 CL         69.2483   92.3232    8.0519 Cl      1  UNL1       -0.0822
     37 C          67.5032   93.8714    9.1956 C.ar    1  UNL1        0.0225
     38 C          66.6332   94.2016   10.3719 C.ar    1  UNL1        0.0546
     39 CL         65.7583   95.4196   10.3392 Cl      1  UNL1       -0.0825
@<TRIPOS>BOND
     1     9    10    1
     2    10    11   ar
     3    11    12   ar
     4    12    13   ar
     5    13     1    1
     6     1     2    1
     7     2     3    1
     8     3     4    1
     9     4     5   am
    10     5     6    2
    11     5    24    1
    12    24    31    1
    13    31    32    1
    14    32    33   ar
    15    33    34   ar
    16    34    35   ar
    17    35    36    1
    18    35    37   ar
    19    37    38   ar
    20    38    39    1
    21    24    25    1
    22    25    26    1
    23    26    27    1
    24    27    28    1
    25    28    29    1
    26    29    30    2
    27     4     7    1
    28     7     8    1
    29    13    14   ar
    30    14    16    1
    31    16    17    1
    32    16    20    1
    33    20    21    1
    34    21    22    1
    35    21    23    1
    36    14    15   ar
    37    15    10   ar
    38     8     1    1
    39    38    32   ar
    40    29    25   am
    41    17    18    1
    42    17    19    1
@<TRIPOS>MOLECULE
*****
 39 42 0 0 0
SMALL
GASTEIGER

@<TRIPOS>ATOM
      1 N          63.5279   85.5490   13.5431 N.pl3   1  UNL1       -0.3043
      2 C          63.2683   86.5092   12.4204 C.3     1  UNL1        0.1123
      3 C          63.4730   87.9804   12.6292 C.3     1  UNL1        0.1149
      4 N          63.9372   88.4914   13.9608 N.am    1  UNL1       -0.2747
      5 C          64.1418   89.9627   14.1697 C.2     1  UNL1        0.2442
      6 O          64.6061   90.4737   15.5013 O.2     1  UNL1       -0.2731
      7 C          64.1968   87.5313   15.0836 C.3     1  UNL1        0.1149
      8 C          63.9922   86.0601   14.8747 C.3     1  UNL1        0.1123
      9 C          62.7094   79.6641   12.7077 C.3     1  UNL1        0.0310
     10 C          62.9140   81.1353   12.9166 C.ar    1  UNL1       -0.0220
     11 C          63.4604   81.6390   14.2195 C.ar    1  UNL1       -0.0030
     12 C          63.6650   83.1103   14.4284 C.ar    1  UNL1        0.0139
     13 C          63.3233   84.0778   13.3343 C.ar    1  UNL1        0.0451
     14 C          62.7770   83.5740   12.0313 C.ar    1  UNL1        0.0048
     15 C          62.5723   82.1028   11.8225 C.ar    1  UNL1       -0.0060
     16 C          62.4352   84.5416   10.9371 C.3     1  UNL1        0.0748
     17 N          61.2907   85.4956   11.1100 N.3     1  UNL1       -0.3188
     18 H          60.8607   85.3488   12.0232 H       1  UNL1        0.1191
     19 H          60.5990   85.3330   10.3783 H       1  UNL1        0.1191
     20 C          63.2380   84.5550    9.6701 C.3     1  UNL1        0.0201
     21 C          62.8043   85.4101    8.5165 C.3     1  UNL1        0.0017
     22 C          62.7205   84.8240    7.1383 C.3     1  UNL1        0.0001
     23 C          62.4544   86.8514    8.7411 C.3     1  UNL1        0.0001
     24 C          63.8822   90.9228   13.0469 C.3     1  UNL1        0.1564
     25 N          62.8500   90.6000   12.0075 N.am    1  UNL1       -0.2727
     26 C          63.0382   90.6851   10.5218 C.3     1  UNL1        0.0943
     27 C          61.7529   90.2731    9.8673 C.3     1  UNL1        0.0311
     28 C          60.7703   89.9333   10.9486 C.3     1  UNL1        0.0870
     29 C          61.4484   90.1354   12.2713 C.2     1  UNL1        0.2260
     30 O          60.8328   89.9120   13.6208 O.2     1  UNL1       -0.2749
     31 C          64.6548   92.2059   12.9635 C.3     1  UNL1        0.0564
     32 C          65.8216   92.3192   12.0278 C.ar    1  UNL1       -0.0094
     33 C          65.6109   92.7925   10.6201 C.ar    1  UNL1       -0.0025
     34 C          66.7778   92.9059    9.6843 C.ar    1  UNL1        0.0111
     35 C          68.1554   92.5460   10.1563 C.ar    1  UNL1        0.0585
     36 CL         69.3222   92.6594    9.2206 Cl      1  UNL1       -0.0822
     37 C          68.3661   92.0727   11.5641 C.ar    1  UNL1        0.0225
     38 C          67.1992   91.9593   12.4998 C.ar    1  UNL1        0.0546
     39 CL         67.4100   91.4861   13.9074 Cl      1  UNL1       -0.0825
@<TRIPOS>BOND
     1     9    10    1
     2    10    11   ar
     3    11    12   ar
     4    12    13   ar
     5    13     1    1
     6     1     2    1
     7     2     3    1
     8     3     4    1
     9     4     5   am
    10     5     6    2
    11     5    24    1
    12    24    31    1
    13    31    32    1
    14    32    33   ar
    15    33    34   ar
    16    34    35   ar
    17    35    36    1
    18    35    37   ar
    19    37    38   ar
    20    38    39    1
    21    24    25    1
    22    25    26    1
    23    26    27    1
    24    27    28    1
    25    28    29    1
    26    29    30    2
    27     4     7    1
    28     7     8    1
    29    13    14   ar
    30    14    16    1
    31    16    17    1
    32    16    20    1
    33    20    21    1
    34    21    22    1
    35    21    23    1
    36    14    15   ar
    37    15    10   ar
    38     8     1    1
    39    38    32   ar
    40    29    25   am
    41    17    18    1
    42    17    19    1
@<TRIPOS>MOLECULE
*****
 39 42 0 0 0
SMALL
GASTEIGER

@<TRIPOS>ATOM
      1 N          63.2810   84.9611   13.5697 N.pl3   1  UNL1       -0.3043
      2 C          62.6043   85.9566   12.6747 C.3     1  UNL1        0.1123
      3 C          62.9386   87.4146   12.7866 C.3     1  UNL1        0.1149
      4 N          63.9495   87.8771   13.7937 N.am    1  UNL1       -0.2747
      5 C          64.2837   89.3351   13.9057 C.2     1  UNL1        0.2442
      6 O          65.2946   89.7976   14.9127 O.2     1  UNL1       -0.2731
      7 C          64.6261   86.8816   14.6887 C.3     1  UNL1        0.1149
      8 C          64.2919   85.4236   14.5767 C.3     1  UNL1        0.1123
      9 C          61.9440   79.1292   13.1217 C.3     1  UNL1        0.0310
     10 C          62.2782   80.5871   13.2337 C.ar    1  UNL1       -0.0220
     11 C          61.8652   81.3599   14.4511 C.ar    1  UNL1       -0.0030
     12 C          62.1995   82.8179   14.5631 C.ar    1  UNL1        0.0139
     13 C          62.9467   83.5031   13.4577 C.ar    1  UNL1        0.0451
     14 C          63.3597   82.7303   12.2403 C.ar    1  UNL1        0.0048
     15 C          63.0255   81.2724   12.1283 C.ar    1  UNL1       -0.0060
     16 C          64.1070   83.4156   11.1347 C.3     1  UNL1        0.0748
     17 N          65.4504   84.0263   11.4037 N.3     1  UNL1       -0.3188
     18 H          65.6989   83.8835   12.3826 H       1  UNL1        0.1191
     19 H          65.4156   85.0259   11.2041 H       1  UNL1        0.1191
     20 C          63.5110   83.4900    9.7603 C.3     1  UNL1        0.0201
     21 C          62.7979   84.7335    9.3184 C.3     1  UNL1        0.0017
     22 C          61.6412   85.2585   10.1162 C.3     1  UNL1        0.0001
     23 C          63.2415   85.4521    8.0787 C.3     1  UNL1        0.0001
     24 C          63.6071   90.3306   13.0106 C.3     1  UNL1        0.1564
     25 N          64.4151   91.3889   12.3199 N.am    1  UNL1       -0.2727
     26 C          64.4996   91.6070   10.8382 C.3     1  UNL1        0.0943
     27 C          65.4172   92.7678   10.5921 C.3     1  UNL1        0.0311
     28 C          65.8998   93.2671   11.9217 C.3     1  UNL1        0.0870
     29 C          65.2805   92.4149   12.9895 C.2     1  UNL1        0.2260
     30 O          65.4899   92.5628   14.4674 O.2     1  UNL1       -0.2749
     31 C          62.1224   90.2678   12.8063 C.3     1  UNL1        0.0564
     32 C          61.5619   89.6358   11.5668 C.ar    1  UNL1       -0.0094
     33 C          62.4615   89.3394   10.4037 C.ar    1  UNL1       -0.0025
     34 C          61.9011   88.7073    9.1641 C.ar    1  UNL1        0.0111
     35 C          60.4411   88.3717    9.0877 C.ar    1  UNL1        0.0585
     36 CL         59.8807   87.7396    7.8482 Cl      1  UNL1       -0.0822
     37 C          59.5415   88.6681   10.2509 C.ar    1  UNL1        0.0225
     38 C          60.1020   89.3001   11.4904 C.ar    1  UNL1        0.0546
     39 CL         59.2024   89.5966   12.6535 Cl      1  UNL1       -0.0825
@<TRIPOS>BOND
     1     9    10    1
     2    10    11   ar
     3    11    12   ar
     4    12    13   ar
     5    13     1    1
     6     1     2    1
     7     2     3    1
     8     3     4    1
     9     4     5   am
    10     5     6    2
    11     5    24    1
    12    24    31    1
    13    31    32    1
    14    32    33   ar
    15    33    34   ar
    16    34    35   ar
    17    35    36    1
    18    35    37   ar
    19    37    38   ar
    20    38    39    1
    21    24    25    1
    22    25    26    1
    23    26    27    1
    24    27    28    1
    25    28    29    1
    26    29    30    2
    27     4     7    1
    28     7     8    1
    29    13    14   ar
    30    14    16    1
    31    16    17    1
    32    16    20    1
    33    20    21    1
    34    21    22    1
    35    21    23    1
    36    14    15   ar
    37    15    10   ar
    38     8     1    1
    39    38    32   ar
    40    29    25   am
    41    17    18    1
    42    17    19    1
