@<TRIPOS>MOLECULE
*****
 67 74 0 0 0
SMALL
GASTEIGER

@<TRIPOS>ATOM
      1 N          61.9982   95.3769   -3.3455 N.3     1  UNL1       -0.1862
      2 C          61.0161   94.8985   -4.3734 C.3     1  UNL1        0.1775
      3 C          59.7718   94.1790   -3.9442 C.2     1  UNL1        0.2452
      4 O          58.7897   93.7006   -4.9721 O.2     1  UNL1       -0.2732
      5 N          59.5097   93.9379   -2.4871 N.am    1  UNL1       -0.2541
      6 C          58.2654   93.2184   -2.0579 C.3     1  UNL1        0.1577
      7 C          58.0033   92.9774   -0.6008 C.2     1  UNL1        0.2445
      8 O          56.7590   92.2579   -0.1717 O.2     1  UNL1       -0.2731
      9 N          58.9854   93.4558    0.4271 N.am    1  UNL1       -0.2705
     10 C          60.2296   94.1753   -0.0020 C.3     1  UNL1        0.1359
     11 C          60.4918   94.4163   -1.4592 C.3     1  UNL1        0.1908
     12 N          61.7360   95.1358   -1.8884 N.am    1  UNL1       -0.1863
     13 C          62.7181   95.6142   -0.8604 C.2     1  UNL1        0.3191
     14 O          62.4559   95.3731    0.5966 O.2     1  UNL1       -0.2512
     15 N          63.9623   96.3337   -1.2896 N.am    1  UNL1       -0.2836
     16 H          64.1344   96.4919   -2.2460 H       1  UNL1        0.1513
     17 C          63.2424   96.0963   -3.7747 C.3     1  UNL1        0.1188
     18 C          65.2768   95.3512   -5.2084 C.2     1  UNL1       -0.0034
     19 C          63.8511   95.8078   -5.1149 C.2     1  UNL1       -0.0071
     20 C          57.2833   92.7400   -3.0858 C.3     1  UNL1        0.0556
     21 C          56.2634   93.6864   -3.6463 C.ar    1  UNL1       -0.0198
     22 C          55.9086   93.6303   -5.1026 C.ar    1  UNL1       -0.0011
     23 C          54.8887   94.5766   -5.6631 C.ar    1  UNL1        0.0363
     24 C          54.2236   95.5791   -4.7673 C.ar    1  UNL1        0.1337
     25 O          53.2037   96.5255   -5.3278 O.3     1  UNL1       -0.5055
     26 C          54.5784   95.6353   -3.3109 C.ar    1  UNL1        0.0363
     27 C          55.5983   94.6889   -2.7504 C.ar    1  UNL1       -0.0011
     28 H          52.9821   96.4905   -6.2375 H       1  UNL1        0.2922
     29 C          58.7232   93.2147    1.8842 C.3     1  UNL1        0.1217
     30 C          59.7212   92.4593    2.7109 C.ar    1  UNL1        0.0135
     31 C          61.1655   92.4354    2.3064 C.ar    1  UNL1       -0.0012
     32 C          62.1635   91.6801    3.1331 C.ar    1  UNL1       -0.0002
     33 C          61.7172   90.9485    4.3642 C.ar    1  UNL1        0.0016
     34 C          60.2730   90.9723    4.7686 C.ar    1  UNL1        0.0214
     35 C          59.5433   90.3503    5.9222 C.ar    1  UNL1        0.0719
     36 C          58.0944   90.7213    5.8085 C.ar    1  UNL1        0.0805
     37 N          57.9286   91.5725    4.5847 N.ar    1  UNL1       -0.3241
     38 C          56.6421   92.1647    4.0903 C.3     1  UNL1        0.1305
     39 C          59.2750   91.7277    3.9420 C.ar    1  UNL1        0.0577
     40 C          60.1552   89.5056    7.0002 C.2     1  UNL1        0.2473
     41 O          60.2690   88.0213    6.8162 O.2     1  UNL1       -0.2701
     42 N          60.6533   90.1452    8.2623 N.am    1  UNL1       -0.3023
     43 H          60.5786   91.1194    8.3831 H       1  UNL1        0.1497
     44 C          61.2652   89.3006    9.3403 C.3     1  UNL1        0.0753
     45 C          61.1187   87.8083    9.2978 C.3     1  UNL1        0.0411
     46 C          61.7305   86.9636   10.3758 C.3     1  UNL1        0.0954
     47 N          62.4889   87.6112   11.4963 N.am    1  UNL1       -0.2760
     48 C          63.1008   86.7665   12.5743 C.2     1  UNL1        0.2490
     49 O          63.8592   87.4141   13.6948 O.2     1  UNL1       -0.2699
     50 C          62.6354   89.1034   11.5388 C.3     1  UNL1        0.0954
     51 C          62.0236   89.9481   10.4608 C.3     1  UNL1        0.0411
     52 C          62.9543   85.2743   12.5319 C.ar    1  UNL1        0.0537
     53 C          63.1470   84.5383   11.2391 C.ar    1  UNL1        0.0058
     54 C          63.0005   83.0461   11.1966 C.ar    1  UNL1        0.0147
     55 C          62.6614   82.2898   12.4468 C.ar    1  UNL1        0.0479
     56 C          62.4688   83.0258   13.7395 C.ar    1  UNL1        0.0147
     57 C          62.6152   84.5180   13.7821 C.ar    1  UNL1        0.0058
     58 N          62.5150   80.7975   12.4043 N.pl3   1  UNL1       -0.3041
     59 C          63.0234   80.0274   11.2218 C.3     1  UNL1        0.1122
     60 C          61.8601   80.0755   13.5444 C.3     1  UNL1        0.1122
     61 C          64.9444   96.8121   -0.2617 C.3     1  UNL1        0.1177
     62 C          65.0778   96.0853    1.0436 C.ar    1  UNL1       -0.0025
     63 C          65.3104   96.8547    2.3101 C.ar    1  UNL1       -0.0026
     64 C          65.4437   96.1279    3.6154 C.ar    1  UNL1       -0.0003
     65 C          65.3444   94.6317    3.6544 C.ar    1  UNL1       -0.0000
     66 C          65.1118   93.8623    2.3879 C.ar    1  UNL1       -0.0003
     67 C          64.9785   94.5891    1.0825 C.ar    1  UNL1       -0.0026
@<TRIPOS>BOND
     1    18    19    2
     2    19    17    1
     3    17     1    1
     4     1     2    1
     5     2     3    1
     6     3     4    2
     7     3     5   am
     8     5     6    1
     9     6    20    1
    10    20    21    1
    11    21    22   ar
    12    22    23   ar
    13    23    24   ar
    14    24    25    1
    15    24    26   ar
    16    26    27   ar
    17     6     7    1
    18     7     8    2
    19     7     9   am
    20     9    29    1
    21    29    30    1
    22    30    31   ar
    23    31    32   ar
    24    32    33   ar
    25    33    34   ar
    26    34    35   ar
    27    35    40    1
    28    40    41    2
    29    40    42   am
    30    42    44    1
    31    44    45    1
    32    45    46    1
    33    46    47    1
    34    47    48   am
    35    48    49    2
    36    48    52    1
    37    52    53   ar
    38    53    54   ar
    39    54    55   ar
    40    55    58    1
    41    58    59    1
    42    58    60    1
    43    55    56   ar
    44    56    57   ar
    45    47    50    1
    46    50    51    1
    47    35    36   ar
    48    36    37   ar
    49    37    38    1
    50    37    39   ar
    51     9    10    1
    52    11    10    1
    53    11    12    1
    54    12    13   am
    55    13    14    2
    56    13    15   am
    57    15    61    1
    58    61    62    1
    59    62    63   ar
    60    63    64   ar
    61    64    65   ar
    62    65    66   ar
    63    66    67   ar
    64    12     1    1
    65    67    62   ar
    66    11     5    1
    67    27    21   ar
    68    39    30   ar
    69    39    34   ar
    70    51    44    1
    71    57    52   ar
    72    25    28    1
    73    42    43    1
    74    15    16    1
@<TRIPOS>MOLECULE
*****
 67 74 0 0 0
SMALL
GASTEIGER

@<TRIPOS>ATOM
      1 N          58.0667   96.0198   -3.6455 N.3     1  UNL1       -0.1862
      2 C          59.5316   96.2069   -3.9082 C.3     1  UNL1        0.1775
      3 C          60.5399   95.7399   -2.9005 C.2     1  UNL1        0.2452
      4 O          62.0049   95.9270   -3.1632 O.2     1  UNL1       -0.2732
      5 N          60.0832   95.0860   -1.6302 N.am    1  UNL1       -0.2541
      6 C          61.0915   94.6191   -0.6225 C.3     1  UNL1        0.1577
      7 C          60.6348   93.9651    0.6478 C.2     1  UNL1        0.2445
      8 O          61.6430   93.4982    1.6555 O.2     1  UNL1       -0.2731
      9 N          59.1698   93.7781    0.9105 N.am    1  UNL1       -0.2705
     10 C          58.1616   94.2450   -0.0972 C.3     1  UNL1        0.1359
     11 C          58.6183   94.8990   -1.3675 C.3     1  UNL1        0.1908
     12 N          57.6101   95.3659   -2.3752 N.am    1  UNL1       -0.1863
     13 C          56.1451   95.1788   -2.1125 C.2     1  UNL1        0.3191
     14 O          55.6884   94.5249   -0.8422 O.2     1  UNL1       -0.2512
     15 N          55.1368   95.6457   -3.1202 N.am    1  UNL1       -0.2836
     16 H          55.4366   96.0749   -3.9540 H       1  UNL1        0.1513
     17 C          57.0585   96.4867   -4.6532 C.3     1  UNL1        0.1188
     18 C          56.4827   96.7669   -7.1712 C.2     1  UNL1       -0.0034
     19 C          57.1170   95.9791   -6.0635 C.2     1  UNL1       -0.0071
     20 C          62.5564   94.8061   -0.8851 C.3     1  UNL1        0.0556
     21 C          63.4639   95.2627    0.2185 C.ar    1  UNL1       -0.0198
     22 C          64.7869   94.5879    0.4291 C.ar    1  UNL1       -0.0011
     23 C          65.6944   95.0445    1.5327 C.ar    1  UNL1        0.0363
     24 C          65.2790   96.1757    2.4257 C.ar    1  UNL1        0.1337
     25 O          66.1865   96.6323    3.5293 O.3     1  UNL1       -0.5055
     26 C          63.9559   96.8506    2.2151 C.ar    1  UNL1        0.0363
     27 C          63.0484   96.3940    1.1115 C.ar    1  UNL1       -0.0011
     28 H          67.0129   96.2108    3.6608 H       1  UNL1        0.2922
     29 C          58.7132   93.1241    2.1808 C.3     1  UNL1        0.1217
     30 C          59.6849   92.3401    3.0122 C.ar    1  UNL1        0.0135
     31 C          61.1386   92.3156    2.6432 C.ar    1  UNL1       -0.0012
     32 C          62.1104   91.5317    3.4744 C.ar    1  UNL1       -0.0002
     33 C          61.6284   90.7721    4.6747 C.ar    1  UNL1        0.0016
     34 C          60.1747   90.7966    5.0438 C.ar    1  UNL1        0.0214
     35 C          59.4122   90.1506    6.1623 C.ar    1  UNL1        0.0719
     36 C          57.9691   90.5354    6.0224 C.ar    1  UNL1        0.0805
     37 N          57.8399   91.4191    4.8173 N.ar    1  UNL1       -0.3241
     38 C          56.5704   92.0336    4.3067 C.3     1  UNL1        0.1305
     39 C          59.2030   91.5805    4.2125 C.ar    1  UNL1        0.0577
     40 C          59.9910   89.2738    7.2330 C.2     1  UNL1        0.2473
     41 O          59.8162   87.7858    7.1597 O.2     1  UNL1       -0.2701
     42 N          60.7447   89.8850    8.3769 N.am    1  UNL1       -0.3023
     43 H          60.8594   90.8616    8.4249 H       1  UNL1        0.1497
     44 C          61.3236   89.0083    9.4475 C.3     1  UNL1        0.0753
     45 C          61.2390   87.5160    9.3218 C.3     1  UNL1        0.0411
     46 C          61.8179   86.6392   10.3924 C.3     1  UNL1        0.0954
     47 N          62.4813   87.2547   11.5886 N.am    1  UNL1       -0.2760
     48 C          63.0602   86.3780   12.6592 C.2     1  UNL1        0.2490
     49 O          63.7236   86.9936   13.8554 O.2     1  UNL1       -0.2699
     50 C          62.5658   88.7471   11.7143 C.3     1  UNL1        0.0954
     51 C          61.9870   89.6238   10.6437 C.3     1  UNL1        0.0411
     52 C          62.9757   84.8856   12.5336 C.ar    1  UNL1        0.0537
     53 C          63.1988   84.2312   11.2025 C.ar    1  UNL1        0.0058
     54 C          63.1143   82.7389   11.0768 C.ar    1  UNL1        0.0147
     55 C          62.8067   81.9009   12.2823 C.ar    1  UNL1        0.0479
     56 C          62.5837   82.5553   13.6134 C.ar    1  UNL1        0.0147
     57 C          62.6681   84.0477   13.7391 C.ar    1  UNL1        0.0058
     58 N          62.7223   80.4086   12.1567 N.pl3   1  UNL1       -0.3041
     59 C          62.9688   79.7524   10.8305 C.3     1  UNL1        0.1122
     60 C          62.3913   79.5724   13.3572 C.3     1  UNL1        0.1122
     61 C          53.6719   95.4587   -2.8576 C.3     1  UNL1        0.1177
     62 C          52.6641   95.9164   -3.8699 C.ar    1  UNL1       -0.0025
     63 C          53.0764   96.1270   -5.2966 C.ar    1  UNL1       -0.0026
     64 C          52.0685   96.5847   -6.3088 C.ar    1  UNL1       -0.0003
     65 C          50.6483   96.8317   -5.8944 C.ar    1  UNL1       -0.0000
     66 C          50.2358   96.6210   -4.4677 C.ar    1  UNL1       -0.0003
     67 C          51.2437   96.1633   -3.4554 C.ar    1  UNL1       -0.0026
@<TRIPOS>BOND
     1    18    19    2
     2    19    17    1
     3    17     1    1
     4     1     2    1
     5     2     3    1
     6     3     4    2
     7     3     5   am
     8     5     6    1
     9     6    20    1
    10    20    21    1
    11    21    22   ar
    12    22    23   ar
    13    23    24   ar
    14    24    25    1
    15    24    26   ar
    16    26    27   ar
    17     6     7    1
    18     7     8    2
    19     7     9   am
    20     9    29    1
    21    29    30    1
    22    30    31   ar
    23    31    32   ar
    24    32    33   ar
    25    33    34   ar
    26    34    35   ar
    27    35    40    1
    28    40    41    2
    29    40    42   am
    30    42    44    1
    31    44    45    1
    32    45    46    1
    33    46    47    1
    34    47    48   am
    35    48    49    2
    36    48    52    1
    37    52    53   ar
    38    53    54   ar
    39    54    55   ar
    40    55    58    1
    41    58    59    1
    42    58    60    1
    43    55    56   ar
    44    56    57   ar
    45    47    50    1
    46    50    51    1
    47    35    36   ar
    48    36    37   ar
    49    37    38    1
    50    37    39   ar
    51     9    10    1
    52    11    10    1
    53    11    12    1
    54    12    13   am
    55    13    14    2
    56    13    15   am
    57    15    61    1
    58    61    62    1
    59    62    63   ar
    60    63    64   ar
    61    64    65   ar
    62    65    66   ar
    63    66    67   ar
    64    12     1    1
    65    67    62   ar
    66    11     5    1
    67    27    21   ar
    68    39    30   ar
    69    39    34   ar
    70    51    44    1
    71    57    52   ar
    72    25    28    1
    73    42    43    1
    74    15    16    1
@<TRIPOS>MOLECULE
*****
 67 74 0 0 0
SMALL
GASTEIGER

@<TRIPOS>ATOM
      1 N          58.0573   96.3245   -3.5245 N.3     1  UNL1       -0.1862
      2 C          59.5151   96.6026   -3.7421 C.3     1  UNL1        0.1775
      3 C          60.5252   96.1421   -2.7333 C.2     1  UNL1        0.2452
      4 O          61.9831   96.4203   -2.9510 O.2     1  UNL1       -0.2732
      5 N          60.0775   95.4035   -1.5070 N.am    1  UNL1       -0.2541
      6 C          61.0876   94.9430   -0.4983 C.3     1  UNL1        0.1577
      7 C          60.6399   94.2043    0.7281 C.2     1  UNL1        0.2445
      8 O          61.6500   93.7438    1.7368 O.2     1  UNL1       -0.2731
      9 N          59.1820   93.9262    0.9457 N.am    1  UNL1       -0.2705
     10 C          58.1719   94.3867   -0.0631 C.3     1  UNL1        0.1359
     11 C          58.6197   95.1254   -1.2894 C.3     1  UNL1        0.1908
     12 N          57.6096   95.5859   -2.2982 N.am    1  UNL1       -0.1863
     13 C          56.1517   95.3077   -2.0806 C.2     1  UNL1        0.3191
     14 O          55.7040   94.5691   -0.8542 O.2     1  UNL1       -0.2512
     15 N          55.1416   95.7682   -3.0893 N.am    1  UNL1       -0.2836
     16 H          55.4354   96.2530   -3.8942 H       1  UNL1        0.1513
     17 C          57.0471   96.7850   -4.5333 C.3     1  UNL1        0.1188
     18 C          56.4291   95.0082   -6.3251 C.2     1  UNL1       -0.0034
     19 C          57.1169   96.2862   -5.9461 C.2     1  UNL1       -0.0071
     20 C          62.5454   95.2211   -0.7158 C.3     1  UNL1        0.0556
     21 C          63.2597   94.6085   -1.8840 C.ar    1  UNL1       -0.0198
     22 C          64.3396   95.3748   -2.5885 C.ar    1  UNL1       -0.0011
     23 C          65.0539   94.7621   -3.7567 C.ar    1  UNL1        0.0363
     24 C          64.6881   93.3833   -4.2203 C.ar    1  UNL1        0.1337
     25 O          65.4024   92.7707   -5.3884 O.3     1  UNL1       -0.5055
     26 C          63.6081   92.6170   -3.5157 C.ar    1  UNL1        0.0363
     27 C          62.8939   93.2296   -2.3475 C.ar    1  UNL1       -0.0011
     28 H          66.0770   93.2494   -5.8285 H       1  UNL1        0.2922
     29 C          58.7343   93.1875    2.1720 C.3     1  UNL1        0.1217
     30 C          59.7285   92.4136    2.9862 C.ar    1  UNL1        0.0135
     31 C          61.1767   92.4095    2.5957 C.ar    1  UNL1       -0.0012
     32 C          62.1709   91.6356    3.4097 C.ar    1  UNL1       -0.0002
     33 C          61.7167   90.8657    4.6143 C.ar    1  UNL1        0.0016
     34 C          60.2684   90.8698    5.0048 C.ar    1  UNL1        0.0214
     35 C          59.5310   90.2102    6.1322 C.ar    1  UNL1        0.0719
     36 C          58.0812   90.5764    6.0149 C.ar    1  UNL1        0.0805
     37 N          57.9225   91.4624    4.8150 N.ar    1  UNL1       -0.3241
     38 C          56.6377   92.0618    4.3254 C.3     1  UNL1        0.1305
     39 C          59.2743   91.6437    4.1907 C.ar    1  UNL1        0.0577
     40 C          60.1371   89.3374    7.1911 C.2     1  UNL1        0.2473
     41 O          60.1403   87.8468    7.0232 O.2     1  UNL1       -0.2701
     42 N          60.7399   89.9553    8.4178 N.am    1  UNL1       -0.3023
     43 H          60.7378   90.9336    8.5279 H       1  UNL1        0.1497
     44 C          61.3460   89.0827    9.4766 C.3     1  UNL1        0.0753
     45 C          61.2182   87.5911    9.3829 C.3     1  UNL1        0.0411
     46 C          61.8243   86.7184   10.4417 C.3     1  UNL1        0.0954
     47 N          62.5581   87.3373   11.5943 N.am    1  UNL1       -0.2760
     48 C          63.1642   86.4647   12.6531 C.2     1  UNL1        0.2490
     49 O          63.8980   87.0836   13.8057 O.2     1  UNL1       -0.2699
     50 C          62.6859   88.8289   11.6880 C.3     1  UNL1        0.0954
     51 C          62.0798   89.7016   10.6292 C.3     1  UNL1        0.0411
     52 C          63.0364   84.9731   12.5594 C.ar    1  UNL1        0.0537
     53 C          63.3905   84.2688   11.2833 C.ar    1  UNL1        0.0058
     54 C          63.2628   82.7771   11.1895 C.ar    1  UNL1        0.0147
     55 C          62.7810   81.9898   12.3719 C.ar    1  UNL1        0.0479
     56 C          62.4270   82.6941   13.6480 C.ar    1  UNL1        0.0147
     57 C          62.5547   84.1858   13.7418 C.ar    1  UNL1        0.0058
     58 N          62.6533   80.4982   12.2782 N.pl3   1  UNL1       -0.3041
     59 C          62.2853   79.6992   13.4932 C.3     1  UNL1        0.1122
     60 C          62.8937   79.8056   10.9696 C.3     1  UNL1        0.1122
     61 C          53.6838   95.4901   -2.8718 C.3     1  UNL1        0.1177
     62 C          52.6795   95.8981   -3.9086 C.ar    1  UNL1       -0.0025
     63 C          51.2338   96.0435   -3.5361 C.ar    1  UNL1       -0.0026
     64 C          50.2295   96.4515   -4.5729 C.ar    1  UNL1       -0.0003
     65 C          50.6709   96.7141   -5.9822 C.ar    1  UNL1       -0.0000
     66 C          52.1167   96.5687   -6.3547 C.ar    1  UNL1       -0.0003
     67 C          53.1210   96.1607   -5.3179 C.ar    1  UNL1       -0.0026
@<TRIPOS>BOND
     1    18    19    2
     2    19    17    1
     3    17     1    1
     4     1     2    1
     5     2     3    1
     6     3     4    2
     7     3     5   am
     8     5     6    1
     9     6    20    1
    10    20    21    1
    11    21    22   ar
    12    22    23   ar
    13    23    24   ar
    14    24    25    1
    15    24    26   ar
    16    26    27   ar
    17     6     7    1
    18     7     8    2
    19     7     9   am
    20     9    29    1
    21    29    30    1
    22    30    31   ar
    23    31    32   ar
    24    32    33   ar
    25    33    34   ar
    26    34    35   ar
    27    35    40    1
    28    40    41    2
    29    40    42   am
    30    42    44    1
    31    44    45    1
    32    45    46    1
    33    46    47    1
    34    47    48   am
    35    48    49    2
    36    48    52    1
    37    52    53   ar
    38    53    54   ar
    39    54    55   ar
    40    55    58    1
    41    58    59    1
    42    58    60    1
    43    55    56   ar
    44    56    57   ar
    45    47    50    1
    46    50    51    1
    47    35    36   ar
    48    36    37   ar
    49    37    38    1
    50    37    39   ar
    51     9    10    1
    52    11    10    1
    53    11    12    1
    54    12    13   am
    55    13    14    2
    56    13    15   am
    57    15    61    1
    58    61    62    1
    59    62    63   ar
    60    63    64   ar
    61    64    65   ar
    62    65    66   ar
    63    66    67   ar
    64    12     1    1
    65    67    62   ar
    66    11     5    1
    67    27    21   ar
    68    39    30   ar
    69    39    34   ar
    70    51    44    1
    71    57    52   ar
    72    25    28    1
    73    42    43    1
    74    15    16    1
@<TRIPOS>MOLECULE
*****
 67 74 0 0 0
SMALL
GASTEIGER

@<TRIPOS>ATOM
      1 N          61.9748   94.9666   -4.0737 N.3     1  UNL1       -0.1862
      2 C          60.8395   94.8419   -5.0461 C.3     1  UNL1        0.1775
      3 C          59.4751   94.4515   -4.5600 C.2     1  UNL1        0.2452
      4 O          58.3398   94.3268   -5.5325 O.2     1  UNL1       -0.2732
      5 N          59.2461   94.1858   -3.1017 N.am    1  UNL1       -0.2541
      6 C          57.8818   93.7954   -2.6156 C.3     1  UNL1        0.1577
      7 C          57.6528   93.5298   -1.1573 C.2     1  UNL1        0.2445
      8 O          56.2884   93.1394   -0.6712 O.2     1  UNL1       -0.2731
      9 N          58.7881   93.6544   -0.1848 N.am    1  UNL1       -0.2705
     10 C          60.1524   94.0448   -0.6709 C.3     1  UNL1        0.1359
     11 C          60.3814   94.3105   -2.1293 C.3     1  UNL1        0.1908
     12 N          61.7457   94.7009   -2.6154 N.am    1  UNL1       -0.1863
     13 C          62.8811   94.8256   -1.6429 C.2     1  UNL1        0.3191
     14 O          62.6520   94.5599   -0.1845 O.2     1  UNL1       -0.2512
     15 N          64.2454   95.2159   -2.1290 N.am    1  UNL1       -0.2836
     16 H          64.3957   95.3903   -3.0862 H       1  UNL1        0.1513
     17 C          63.3391   95.3569   -4.5598 C.3     1  UNL1        0.1188
     18 C          63.9251   92.8696   -5.0286 C.2     1  UNL1       -0.0034
     19 C          64.2354   94.3289   -5.1840 C.2     1  UNL1       -0.0071
     20 C          56.7465   93.6707   -3.5880 C.3     1  UNL1        0.0556
     21 C          56.1374   92.3275   -3.8616 C.ar    1  UNL1       -0.0198
     22 C          55.9960   91.3281   -2.7521 C.ar    1  UNL1       -0.0011
     23 C          55.3869   89.9849   -3.0257 C.ar    1  UNL1        0.0363
     24 C          54.9193   89.6412   -4.4088 C.ar    1  UNL1        0.1337
     25 O          54.3103   88.2980   -4.6825 O.3     1  UNL1       -0.5055
     26 C          55.0608   90.6406   -5.5185 C.ar    1  UNL1        0.0363
     27 C          55.6698   91.9838   -5.2448 C.ar    1  UNL1       -0.0011
     28 H          54.2219   87.6736   -3.9894 H       1  UNL1        0.2922
     29 C          58.5591   93.3888    1.2736 C.3     1  UNL1        0.1217
     30 C          59.6514   92.7865    2.1068 C.ar    1  UNL1        0.0135
     31 C          61.0727   92.8367    1.6300 C.ar    1  UNL1       -0.0012
     32 C          62.1650   92.2345    2.4632 C.ar    1  UNL1       -0.0002
     33 C          61.8360   91.5822    3.7732 C.ar    1  UNL1        0.0016
     34 C          60.4147   91.5320    4.2500 C.ar    1  UNL1        0.0214
     35 C          59.7911   90.9602    5.4886 C.ar    1  UNL1        0.0719
     36 C          58.3135   91.2090    5.4209 C.ar    1  UNL1        0.0805
     37 N          58.0238   91.9345    4.1405 N.ar    1  UNL1       -0.3241
     38 C          56.6727   92.3819    3.6669 C.3     1  UNL1        0.1305
     39 C          59.3224   92.1342    3.4168 C.ar    1  UNL1        0.0577
     40 C          60.5177   90.2621    6.5999 C.2     1  UNL1        0.2473
     41 O          61.9590   90.5791    6.8690 O.2     1  UNL1       -0.2701
     42 N          59.8031   89.2471    7.4419 N.am    1  UNL1       -0.3023
     43 H          58.8572   89.0391    7.2652 H       1  UNL1        0.1497
     44 C          60.5296   88.5490    8.5531 C.3     1  UNL1        0.0753
     45 C          60.5597   87.0502    8.6042 C.3     1  UNL1        0.0411
     46 C          61.2861   86.3520    9.7153 C.3     1  UNL1        0.0954
     47 N          61.9826   87.1526   10.7755 N.am    1  UNL1       -0.2760
     48 C          62.7091   86.4545   11.8867 C.2     1  UNL1        0.2490
     49 O          63.4055   87.2552   12.9468 O.2     1  UNL1       -0.2699
     50 C          61.9526   88.6515   10.7244 C.3     1  UNL1        0.0954
     51 C          61.2261   89.3496    9.6132 C.3     1  UNL1        0.0411
     52 C          62.7392   84.9557   11.9378 C.ar    1  UNL1        0.0537
     53 C          62.2482   84.2370   13.1594 C.ar    1  UNL1        0.0058
     54 C          62.2782   82.7382   13.2106 C.ar    1  UNL1        0.0147
     55 C          62.7993   81.9580   12.0402 C.ar    1  UNL1        0.0479
     56 C          63.2903   82.6767   10.8186 C.ar    1  UNL1        0.0147
     57 C          63.2602   84.1755   10.7674 C.ar    1  UNL1        0.0058
     58 N          62.8294   80.4592   12.0914 N.pl3   1  UNL1       -0.3041
     59 C          62.8066   79.7533   13.4147 C.3     1  UNL1        0.1122
     60 C          62.8822   79.6662   10.8192 C.3     1  UNL1        0.1122
     61 C          65.3807   95.3406   -1.1566 C.3     1  UNL1        0.1177
     62 C          65.1019   95.4284    0.3146 C.ar    1  UNL1       -0.0025
     63 C          64.9229   96.7680    0.9654 C.ar    1  UNL1       -0.0026
     64 C          64.6442   96.8558    2.4367 C.ar    1  UNL1       -0.0003
     65 C          64.5443   95.6040    3.2571 C.ar    1  UNL1       -0.0000
     66 C          64.7233   94.2644    2.6063 C.ar    1  UNL1       -0.0003
     67 C          65.0021   94.1766    1.1351 C.ar    1  UNL1       -0.0026
@<TRIPOS>BOND
     1    18    19    2
     2    19    17    1
     3    17     1    1
     4     1     2    1
     5     2     3    1
     6     3     4    2
     7     3     5   am
     8     5     6    1
     9     6    20    1
    10    20    21    1
    11    21    22   ar
    12    22    23   ar
    13    23    24   ar
    14    24    25    1
    15    24    26   ar
    16    26    27   ar
    17     6     7    1
    18     7     8    2
    19     7     9   am
    20     9    29    1
    21    29    30    1
    22    30    31   ar
    23    31    32   ar
    24    32    33   ar
    25    33    34   ar
    26    34    35   ar
    27    35    40    1
    28    40    41    2
    29    40    42   am
    30    42    44    1
    31    44    45    1
    32    45    46    1
    33    46    47    1
    34    47    48   am
    35    48    49    2
    36    48    52    1
    37    52    53   ar
    38    53    54   ar
    39    54    55   ar
    40    55    58    1
    41    58    59    1
    42    58    60    1
    43    55    56   ar
    44    56    57   ar
    45    47    50    1
    46    50    51    1
    47    35    36   ar
    48    36    37   ar
    49    37    38    1
    50    37    39   ar
    51     9    10    1
    52    11    10    1
    53    11    12    1
    54    12    13   am
    55    13    14    2
    56    13    15   am
    57    15    61    1
    58    61    62    1
    59    62    63   ar
    60    63    64   ar
    61    64    65   ar
    62    65    66   ar
    63    66    67   ar
    64    12     1    1
    65    67    62   ar
    66    11     5    1
    67    27    21   ar
    68    39    30   ar
    69    39    34   ar
    70    51    44    1
    71    57    52   ar
    72    25    28    1
    73    42    43    1
    74    15    16    1
