@<TRIPOS>MOLECULE
*****
 42 46 0 0 0
SMALL
GASTEIGER

@<TRIPOS>ATOM
      1 C          64.0401   91.3296   13.8511 C.ar    1  UNL1        0.1539
      2 N          65.2858   92.1611   13.7704 N.ar    1  UNL1       -0.1328
      3 N          65.8063   92.6045   12.4353 N.ar    1  UNL1       -0.1452
      4 C          65.0810   92.2163   11.1810 C.ar    1  UNL1        0.1223
      5 C          63.8353   91.3848   11.2617 C.ar    1  UNL1        0.0267
      6 C          63.1100   90.9966   10.0074 C.ar    1  UNL1        0.0386
      7 C          61.8643   90.1650   10.0882 C.ar    1  UNL1        0.1386
      8 C          61.3437   89.7215   11.4233 C.ar    1  UNL1        0.0370
      9 C          62.0690   90.1097   12.6776 C.ar    1  UNL1        0.0060
     10 C          63.3148   90.9414   12.5968 C.ar    1  UNL1        0.0352
     11 N          63.5195   90.8861   15.1862 N.pl3   1  UNL1       -0.2941
     12 H          63.1350   91.5452   15.8083 H       1  UNL1        0.1537
     13 N          64.1821   87.0865   15.6213 N.ar    1  UNL1       -0.2387
     14 C          64.4268   88.3865   14.9143 C.ar    1  UNL1        0.1118
     15 C          63.5849   89.4384   15.5735 C.ar    1  UNL1        0.0896
     16 C          62.8198   88.7885   16.6881 C.ar    1  UNL1        0.1363
     17 N          63.1889   87.3349   16.7176 N.ar    1  UNL1       -0.1658
     18 C          64.8187   85.7693   15.2903 C.3     1  UNL1        0.2122
     19 O          62.7735   85.0940   13.8374 O.2     1  UNL1       -0.2726
     20 C          64.1943   84.8714   14.2638 C.2     1  UNL1        0.2510
     21 N          64.9905   83.7508   13.6636 N.am    1  UNL1       -0.2805
     22 H          65.9231   83.6046   13.9435 H       1  UNL1        0.1550
     23 C          64.3661   82.8529   12.6371 C.ar    1  UNL1        0.0804
     24 C          64.4936   83.1788   11.1785 C.ar    1  UNL1        0.0171
     25 C          63.8691   82.2808   10.1520 C.ar    1  UNL1        0.0037
     26 C          63.1171   81.0570   10.5840 C.ar    1  UNL1        0.0321
     27 C          62.9895   80.7310   12.0427 C.ar    1  UNL1        0.1686
     28 F          62.2376   79.5072   12.4748 F       1  UNL1       -0.2018
     29 C          63.6140   81.6290   13.0692 C.ar    1  UNL1        0.1807
     30 F          63.4865   81.3031   14.5278 F       1  UNL1       -0.2005
     31 O          61.1390   89.7768    8.8339 O.3     1  UNL1       -0.4754
     32 C          59.7786   89.1505    8.9174 C.3     1  UNL1        0.2068
     33 C          59.3665   88.1155    7.9129 C.3     1  UNL1        0.0646
     34 C          59.5210   86.6579    8.2314 C.3     1  UNL1        0.0760
     35 N          60.8285   85.9688    7.9756 N.3     1  UNL1       -0.2716
     36 C          61.1808   85.1710    6.7551 C.3     1  UNL1        0.0722
     37 C          62.5834   84.6657    6.9205 C.3     1  UNL1        0.0188
     38 C          63.0980   85.1511    8.2432 C.3     1  UNL1        0.0199
     39 C          62.0135   85.9565    8.8953 C.3     1  UNL1        0.0870
     40 C          62.0989   86.6310   10.2323 C.3     1  UNL1        0.1530
     41 O          61.3272   86.0867   11.3978 O.3     1  UNL1       -0.3806
     42 H          60.3768   86.1812   11.2288 H       1  UNL1        0.2105
@<TRIPOS>BOND
     1    19    20    2
     2    20    18    1
     3    18    13    1
     4    13    14   ar
     5    14    15   ar
     6    15    11    1
     7    11     1    1
     8     1     2   ar
     9     2     3   ar
    10     3     4   ar
    11     4     5   ar
    12     5     6   ar
    13     6     7   ar
    14     7    31    1
    15    31    32    1
    16    32    33    1
    17    33    34    1
    18    34    35    1
    19    35    36    1
    20    36    37    1
    21    37    38    1
    22    38    39    1
    23    39    40    1
    24    40    41    1
    25     7     8   ar
    26     8     9   ar
    27     9    10   ar
    28    15    16   ar
    29    16    17   ar
    30    20    21   am
    31    21    23    1
    32    23    24   ar
    33    24    25   ar
    34    25    26   ar
    35    26    27   ar
    36    27    28    1
    37    27    29   ar
    38    29    30    1
    39    17    13   ar
    40    29    23   ar
    41    10     1   ar
    42    10     5   ar
    43    39    35    1
    44    11    12    1
    45    41    42    1
    46    21    22    1
@<TRIPOS>MOLECULE
*****
 42 46 0 0 0
SMALL
GASTEIGER

@<TRIPOS>ATOM
      1 C          63.8377   85.6215   16.2837 C.ar    1  UNL1        0.1539
      2 N          63.0709   85.2173   17.5079 N.ar    1  UNL1       -0.1328
      3 N          62.3086   86.2462   18.2891 N.ar    1  UNL1       -0.1452
      4 C          62.3132   87.6793   17.8462 C.ar    1  UNL1        0.1223
      5 C          63.0800   88.0835   16.6220 C.ar    1  UNL1        0.0267
      6 C          63.0845   89.5166   16.1791 C.ar    1  UNL1        0.0386
      7 C          63.8513   89.9208   14.9549 C.ar    1  UNL1        0.1386
      8 C          64.6136   88.8919   14.1736 C.ar    1  UNL1        0.0370
      9 C          64.6090   87.4588   14.6166 C.ar    1  UNL1        0.0060
     10 C          63.8422   87.0546   15.8408 C.ar    1  UNL1        0.0352
     11 N          64.6000   84.5926   15.5025 N.pl3   1  UNL1       -0.2941
     12 H          65.5165   84.3516   15.7690 H       1  UNL1        0.1537
     13 N          63.3178   83.4122   12.0343 N.ar    1  UNL1       -0.2387
     14 C          64.1237   84.3501   12.8834 C.ar    1  UNL1        0.1118
     15 C          63.9657   83.9310   14.3150 C.ar    1  UNL1        0.0896
     16 C          63.0622   82.7342   14.3506 C.ar    1  UNL1        0.1363
     17 N          62.6618   82.4136   12.9410 N.ar    1  UNL1       -0.1658
     18 C          63.1903   83.4640   10.5406 C.3     1  UNL1        0.2122
     19 O          63.2880   85.1494    8.5658 O.2     1  UNL1       -0.2726
     20 C          62.6957   84.7128    9.8729 C.2     1  UNL1        0.2510
     21 N          61.6087   85.5249   10.5123 N.am    1  UNL1       -0.2805
     22 H          61.2200   85.2384   11.3702 H       1  UNL1        0.1550
     23 C          61.1141   86.7738    9.8447 C.ar    1  UNL1        0.0804
     24 C          60.0672   86.6874    8.7738 C.ar    1  UNL1        0.0171
     25 C          59.5726   87.9363    8.1061 C.ar    1  UNL1        0.0037
     26 C          60.1247   89.2714    8.5093 C.ar    1  UNL1        0.0321
     27 C          61.1716   89.3578    9.5802 C.ar    1  UNL1        0.1686
     28 F          61.7238   90.6928    9.9833 F       1  UNL1       -0.2018
     29 C          61.6663   88.1089   10.2478 C.ar    1  UNL1        0.1807
     30 F          62.7131   88.1953   11.3187 F       1  UNL1       -0.2005
     31 O          63.8558   91.3539   14.5120 O.3     1  UNL1       -0.4754
     32 C          64.3836   91.7182   13.1560 C.3     1  UNL1        0.2068
     33 C          65.7993   92.1901   13.0041 C.3     1  UNL1        0.0646
     34 C          66.0818   93.5283   12.3883 C.3     1  UNL1        0.0760
     35 N          66.8402   93.6147   11.0971 N.3     1  UNL1       -0.2716
     36 C          67.5183   92.4758   10.3949 C.3     1  UNL1        0.0722
     37 C          68.1509   93.0124    9.1451 C.3     1  UNL1        0.0188
     38 C          67.8637   94.4830    9.0749 C.3     1  UNL1        0.0199
     39 C          67.0537   94.8553   10.2812 C.3     1  UNL1        0.0870
     40 C          66.5463   96.2271   10.6134 C.3     1  UNL1        0.1530
     41 O          65.0876   96.4407   10.8904 O.3     1  UNL1       -0.3806
     42 H          64.5769   96.2698   10.0836 H       1  UNL1        0.2105
@<TRIPOS>BOND
     1    19    20    2
     2    20    18    1
     3    18    13    1
     4    13    14   ar
     5    14    15   ar
     6    15    11    1
     7    11     1    1
     8     1     2   ar
     9     2     3   ar
    10     3     4   ar
    11     4     5   ar
    12     5     6   ar
    13     6     7   ar
    14     7    31    1
    15    31    32    1
    16    32    33    1
    17    33    34    1
    18    34    35    1
    19    35    36    1
    20    36    37    1
    21    37    38    1
    22    38    39    1
    23    39    40    1
    24    40    41    1
    25     7     8   ar
    26     8     9   ar
    27     9    10   ar
    28    15    16   ar
    29    16    17   ar
    30    20    21   am
    31    21    23    1
    32    23    24   ar
    33    24    25   ar
    34    25    26   ar
    35    26    27   ar
    36    27    28    1
    37    27    29   ar
    38    29    30    1
    39    17    13   ar
    40    29    23   ar
    41    10     1   ar
    42    10     5   ar
    43    39    35    1
    44    11    12    1
    45    41    42    1
    46    21    22    1
@<TRIPOS>MOLECULE
*****
 42 46 0 0 0
SMALL
GASTEIGER

@<TRIPOS>ATOM
      1 C          61.2006   86.6539    9.2110 C.ar    1  UNL1        0.1539
      2 N          61.1574   86.3966    7.7338 N.ar    1  UNL1       -0.1328
      3 N          61.9321   85.2532    7.1488 N.ar    1  UNL1       -0.1452
      4 C          62.7499   84.3670    8.0408 C.ar    1  UNL1        0.1223
      5 C          62.7931   84.6242    9.5179 C.ar    1  UNL1        0.0267
      6 C          63.6110   83.7380   10.4099 C.ar    1  UNL1        0.0386
      7 C          63.6542   83.9952   11.8870 C.ar    1  UNL1        0.1386
      8 C          62.8795   85.1387   12.4722 C.ar    1  UNL1        0.0370
      9 C          62.0616   86.0249   11.5802 C.ar    1  UNL1        0.0060
     10 C          62.0185   85.7677   10.1030 C.ar    1  UNL1        0.0352
     11 N          60.4259   87.7974    9.7961 N.pl3   1  UNL1       -0.2941
     12 H          59.4423   87.7632    9.8227 H       1  UNL1        0.1537
     13 N          62.7391   90.8089   10.5992 N.ar    1  UNL1       -0.2387
     14 C          62.3444   89.6572    9.7230 C.ar    1  UNL1        0.1118
     15 C          61.1498   88.9929   10.3408 C.ar    1  UNL1        0.0896
     16 C          60.8062   89.7340   11.5988 C.ar    1  UNL1        0.1363
     17 N          61.7885   90.8564   11.7586 N.ar    1  UNL1       -0.1658
     18 C          63.8835   91.7482   10.3584 C.3     1  UNL1        0.2122
     19 O          65.4422   93.5156   11.4522 O.2     1  UNL1       -0.2726
     20 C          64.7470   92.1875   11.5035 C.2     1  UNL1        0.2510
     21 N          64.9151   91.2987   12.7001 N.am    1  UNL1       -0.2805
     22 H          64.4588   90.4270   12.7338 H       1  UNL1        0.1550
     23 C          65.7786   91.7380   13.8453 C.ar    1  UNL1        0.0804
     24 C          65.1691   91.9801   15.1943 C.ar    1  UNL1        0.0171
     25 C          66.0326   92.4194   16.3395 C.ar    1  UNL1        0.0037
     26 C          67.5055   92.6167   16.1357 C.ar    1  UNL1        0.0321
     27 C          68.1151   92.3746   14.7866 C.ar    1  UNL1        0.1686
     28 F          69.5879   92.5718   14.5827 F       1  UNL1       -0.2018
     29 C          67.2516   91.9353   13.6414 C.ar    1  UNL1        0.1807
     30 F          67.8611   91.6932   12.2923 F       1  UNL1       -0.2005
     31 O          64.4721   83.1090   12.7791 O.3     1  UNL1       -0.4754
     32 C          63.8918   82.5977   14.0643 C.3     1  UNL1        0.2068
     33 C          63.7069   83.5280   15.2263 C.3     1  UNL1        0.0646
     34 C          64.3160   84.8984   15.1942 C.3     1  UNL1        0.0760
     35 N          63.7238   86.0019   16.0198 N.3     1  UNL1       -0.2716
     36 C          62.9803   85.8347   17.3118 C.3     1  UNL1        0.0722
     37 C          62.5681   87.1958   17.7889 C.3     1  UNL1        0.0188
     38 C          63.0568   88.2041   16.7917 C.3     1  UNL1        0.0199
     39 C          63.7710   87.4663   15.6983 C.3     1  UNL1        0.0870
     40 C          64.4188   88.0843   14.4949 C.3     1  UNL1        0.1530
     41 O          63.5751   88.7434   13.4443 O.3     1  UNL1       -0.3806
     42 H          63.0235   88.0760   13.0069 H       1  UNL1        0.2105
@<TRIPOS>BOND
     1    19    20    2
     2    20    18    1
     3    18    13    1
     4    13    14   ar
     5    14    15   ar
     6    15    11    1
     7    11     1    1
     8     1     2   ar
     9     2     3   ar
    10     3     4   ar
    11     4     5   ar
    12     5     6   ar
    13     6     7   ar
    14     7    31    1
    15    31    32    1
    16    32    33    1
    17    33    34    1
    18    34    35    1
    19    35    36    1
    20    36    37    1
    21    37    38    1
    22    38    39    1
    23    39    40    1
    24    40    41    1
    25     7     8   ar
    26     8     9   ar
    27     9    10   ar
    28    15    16   ar
    29    16    17   ar
    30    20    21   am
    31    21    23    1
    32    23    24   ar
    33    24    25   ar
    34    25    26   ar
    35    26    27   ar
    36    27    28    1
    37    27    29   ar
    38    29    30    1
    39    17    13   ar
    40    29    23   ar
    41    10     1   ar
    42    10     5   ar
    43    39    35    1
    44    11    12    1
    45    41    42    1
    46    21    22    1
@<TRIPOS>MOLECULE
*****
 42 46 0 0 0
SMALL
GASTEIGER

@<TRIPOS>ATOM
      1 C          61.2269   89.3444   11.6377 C.ar    1  UNL1        0.1539
      2 N          60.5517   90.3582   10.7623 N.ar    1  UNL1       -0.1328
      3 N          60.3263   90.0629    9.3091 N.ar    1  UNL1       -0.1452
      4 C          60.7760   88.7537    8.7312 C.ar    1  UNL1        0.1223
      5 C          61.4512   87.7399    9.6066 C.ar    1  UNL1        0.0267
      6 C          61.9009   86.4308    9.0287 C.ar    1  UNL1        0.0386
      7 C          62.5761   85.4170    9.9041 C.ar    1  UNL1        0.1386
      8 C          62.8015   85.7123   11.3574 C.ar    1  UNL1        0.0370
      9 C          62.3518   87.0214   11.9353 C.ar    1  UNL1        0.0060
     10 C          61.6766   88.0352   11.0598 C.ar    1  UNL1        0.0352
     11 N          61.4524   89.6397   13.0910 N.pl3   1  UNL1       -0.2941
     12 H          60.6895   89.6615   13.7130 H       1  UNL1        0.1537
     13 N          64.8902   91.0359   14.2301 N.ar    1  UNL1       -0.2387
     14 C          63.5176   91.2384   13.6600 C.ar    1  UNL1        0.1118
     15 C          62.8401   89.9017   13.5966 C.ar    1  UNL1        0.0896
     16 C          63.7939   88.8729   14.1274 C.ar    1  UNL1        0.1363
     17 N          65.0610   89.5739   14.5190 N.ar    1  UNL1       -0.1658
     18 C          65.9125   92.1072   14.4693 C.3     1  UNL1        0.2122
     19 O          68.0054   92.7353   13.0640 O.2     1  UNL1       -0.2726
     20 C          66.5283   92.8290   13.3076 C.2     1  UNL1        0.2510
     21 N          65.6670   93.6445   12.3894 N.am    1  UNL1       -0.2805
     22 H          64.6975   93.7060   12.5493 H       1  UNL1        0.1550
     23 C          66.2828   94.3664   11.2277 C.ar    1  UNL1        0.0804
     24 C          66.2649   95.8656   11.1813 C.ar    1  UNL1        0.0171
     25 C          66.8807   96.5875   10.0195 C.ar    1  UNL1        0.0037
     26 C          67.5145   95.8102    8.9041 C.ar    1  UNL1        0.0321
     27 C          67.5324   94.3109    8.9504 C.ar    1  UNL1        0.1686
     28 F          68.1661   93.5336    7.8351 F       1  UNL1       -0.2018
     29 C          66.9166   93.5890   10.1122 C.ar    1  UNL1        0.1807
     30 F          66.9345   92.0899   10.1586 F       1  UNL1       -0.2005
     31 O          63.0258   84.1079    9.3262 O.3     1  UNL1       -0.4754
     32 C          64.0872   83.3068   10.0202 C.3     1  UNL1        0.2068
     33 C          63.7007   82.2438   11.0054 C.3     1  UNL1        0.0646
     34 C          64.4159   82.1439   12.3201 C.3     1  UNL1        0.0760
     35 N          63.9419   82.9472   13.4947 N.3     1  UNL1       -0.2716
     36 C          64.6176   84.1591   14.0646 C.3     1  UNL1        0.0722
     37 C          63.8022   84.6406   15.2279 C.3     1  UNL1        0.0188
     38 C          62.6224   83.7264   15.3770 C.3     1  UNL1        0.0199
     39 C          62.7087   82.6797   14.3059 C.3     1  UNL1        0.0870
     40 C          61.7332   81.5620   14.0847 C.3     1  UNL1        0.1530
     41 O          62.2314   80.1846   13.7617 O.3     1  UNL1       -0.3806
     42 H          62.6673   80.1933   12.8952 H       1  UNL1        0.2105
@<TRIPOS>BOND
     1    19    20    2
     2    20    18    1
     3    18    13    1
     4    13    14   ar
     5    14    15   ar
     6    15    11    1
     7    11     1    1
     8     1     2   ar
     9     2     3   ar
    10     3     4   ar
    11     4     5   ar
    12     5     6   ar
    13     6     7   ar
    14     7    31    1
    15    31    32    1
    16    32    33    1
    17    33    34    1
    18    34    35    1
    19    35    36    1
    20    36    37    1
    21    37    38    1
    22    38    39    1
    23    39    40    1
    24    40    41    1
    25     7     8   ar
    26     8     9   ar
    27     9    10   ar
    28    15    16   ar
    29    16    17   ar
    30    20    21   am
    31    21    23    1
    32    23    24   ar
    33    24    25   ar
    34    25    26   ar
    35    26    27   ar
    36    27    28    1
    37    27    29   ar
    38    29    30    1
    39    17    13   ar
    40    29    23   ar
    41    10     1   ar
    42    10     5   ar
    43    39    35    1
    44    11    12    1
    45    41    42    1
    46    21    22    1
@<TRIPOS>MOLECULE
*****
 42 46 0 0 0
SMALL
GASTEIGER

@<TRIPOS>ATOM
      1 C          62.3764   90.3706   12.9473 C.ar    1  UNL1        0.1539
      2 N          62.1822   89.7541   14.3009 N.ar    1  UNL1       -0.1328
      3 N          63.3077   89.7518   15.2924 N.ar    1  UNL1       -0.1452
      4 C          64.6275   90.3659   14.9303 C.ar    1  UNL1        0.1223
      5 C          64.8217   90.9824   13.5767 C.ar    1  UNL1        0.0267
      6 C          66.1414   91.5965   13.2146 C.ar    1  UNL1        0.0386
      7 C          66.3356   92.2130   11.8611 C.ar    1  UNL1        0.1386
      8 C          65.2100   92.2153   10.8695 C.ar    1  UNL1        0.0370
      9 C          63.8903   91.6012   11.2316 C.ar    1  UNL1        0.0060
     10 C          63.6961   90.9847   12.5852 C.ar    1  UNL1        0.0352
     11 N          61.2508   90.3729   11.9558 N.pl3   1  UNL1       -0.2941
     12 H          60.5467   91.0588   12.0119 H       1  UNL1        0.1537
     13 N          61.7524   87.4247    9.4815 N.ar    1  UNL1       -0.2387
     14 C          62.1955   88.2303   10.6667 C.ar    1  UNL1        0.1118
     15 C          61.1980   89.3303   10.8787 C.ar    1  UNL1        0.0896
     16 C          60.1384   89.2046    9.8244 C.ar    1  UNL1        0.1363
     17 N          60.4810   88.0269    8.9609 N.ar    1  UNL1       -0.1658
     18 C          62.4570   86.2273    8.9161 C.3     1  UNL1        0.2122
     19 O          63.7501   84.0080    9.3062 O.2     1  UNL1       -0.2726
     20 C          62.8503   85.0941    9.8167 C.2     1  UNL1        0.2510
     21 N          62.3437   85.0469   11.2278 N.am    1  UNL1       -0.2805
     22 H          61.7531   85.7597   11.5628 H       1  UNL1        0.1550
     23 C          62.7371   83.9137   12.1283 C.ar    1  UNL1        0.0804
     24 C          62.4478   82.4987   11.7233 C.ar    1  UNL1        0.0171
     25 C          62.8411   81.3654   12.6239 C.ar    1  UNL1        0.0037
     26 C          63.5238   81.6472   13.9295 C.ar    1  UNL1        0.0321
     27 C          63.8131   83.0622   14.3346 C.ar    1  UNL1        0.1686
     28 F          64.4957   83.3440   15.6402 F       1  UNL1       -0.2018
     29 C          63.4198   84.1955   13.4340 C.ar    1  UNL1        0.1807
     30 F          63.7090   85.6105   13.8390 F       1  UNL1       -0.2005
     31 O          67.6554   92.8271   11.4990 O.3     1  UNL1       -0.4754
     32 C          68.3629   92.4004   10.2470 C.3     1  UNL1        0.2068
     33 C          68.0502   93.0721    8.9428 C.3     1  UNL1        0.0646
     34 C          68.2126   94.5570    8.8060 C.3     1  UNL1        0.0760
     35 N          67.0095   95.4264    8.5901 N.3     1  UNL1       -0.2716
     36 C          66.4112   95.7903    7.2636 C.3     1  UNL1        0.0722
     37 C          65.2253   96.6733    7.5165 C.3     1  UNL1        0.0188
     38 C          65.0907   96.8552    8.9993 C.3     1  UNL1        0.0199
     39 C          66.1933   96.0845    9.6629 C.3     1  UNL1        0.0870
     40 C          66.4370   95.9888   11.1398 C.3     1  UNL1        0.1530
     41 O          65.5330   96.7071   12.0973 O.3     1  UNL1       -0.3806
     42 H          65.6314   97.6647   11.9784 H       1  UNL1        0.2105
@<TRIPOS>BOND
     1    19    20    2
     2    20    18    1
     3    18    13    1
     4    13    14   ar
     5    14    15   ar
     6    15    11    1
     7    11     1    1
     8     1     2   ar
     9     2     3   ar
    10     3     4   ar
    11     4     5   ar
    12     5     6   ar
    13     6     7   ar
    14     7    31    1
    15    31    32    1
    16    32    33    1
    17    33    34    1
    18    34    35    1
    19    35    36    1
    20    36    37    1
    21    37    38    1
    22    38    39    1
    23    39    40    1
    24    40    41    1
    25     7     8   ar
    26     8     9   ar
    27     9    10   ar
    28    15    16   ar
    29    16    17   ar
    30    20    21   am
    31    21    23    1
    32    23    24   ar
    33    24    25   ar
    34    25    26   ar
    35    26    27   ar
    36    27    28    1
    37    27    29   ar
    38    29    30    1
    39    17    13   ar
    40    29    23   ar
    41    10     1   ar
    42    10     5   ar
    43    39    35    1
    44    11    12    1
    45    41    42    1
    46    21    22    1
@<TRIPOS>MOLECULE
*****
 42 46 0 0 0
SMALL
GASTEIGER

@<TRIPOS>ATOM
      1 C          60.1532   87.6832    9.5532 C.ar    1  UNL1        0.1539
      2 N          59.3843   87.7348    8.2664 N.ar    1  UNL1       -0.1328
      3 N          59.6281   86.7031    7.2052 N.ar    1  UNL1       -0.1452
      4 C          60.6408   85.6199    7.4309 C.ar    1  UNL1        0.1223
      5 C          61.4097   85.5682    8.7178 C.ar    1  UNL1        0.0267
      6 C          62.4224   84.4850    8.9434 C.ar    1  UNL1        0.0386
      7 C          63.1913   84.4333   10.2303 C.ar    1  UNL1        0.1386
      8 C          62.9475   85.4651   11.2916 C.ar    1  UNL1        0.0370
      9 C          61.9348   86.5483   11.0659 C.ar    1  UNL1        0.0060
     10 C          61.1659   86.5999    9.7789 C.ar    1  UNL1        0.0352
     11 N          59.9094   88.7149   10.6145 N.pl3   1  UNL1       -0.2941
     12 H          59.0058   88.8343   10.9866 H       1  UNL1        0.1537
     13 N          62.9720   91.0360   11.1614 N.ar    1  UNL1       -0.2387
     14 C          62.0094   90.3289   10.2539 C.ar    1  UNL1        0.1118
     15 C          61.0424   89.5647   11.1087 C.ar    1  UNL1        0.0896
     16 C          61.4074   89.7994   12.5446 C.ar    1  UNL1        0.1363
     17 N          62.5999   90.7087   12.5772 N.ar    1  UNL1       -0.1658
     18 C          64.1073   91.9158   10.7291 C.3     1  UNL1        0.2122
     19 O          65.8997   93.6282   11.5066 O.2     1  UNL1       -0.2726
     20 C          65.1377   92.3551   11.7266 C.2     1  UNL1        0.2510
     21 N          65.4060   91.5213   12.9443 N.am    1  UNL1       -0.2805
     22 H          64.9058   90.6857   13.0888 H       1  UNL1        0.1550
     23 C          66.4364   91.9606   13.9420 C.ar    1  UNL1        0.0804
     24 C          66.0143   92.3954   15.3141 C.ar    1  UNL1        0.0171
     25 C          67.0447   92.8347   16.3118 C.ar    1  UNL1        0.0037
     26 C          68.4972   92.8393   15.9373 C.ar    1  UNL1        0.0321
     27 C          68.9193   92.4045   14.5651 C.ar    1  UNL1        0.1686
     28 F          70.3717   92.4090   14.1906 F       1  UNL1       -0.2018
     29 C          67.8889   91.9652   13.5674 C.ar    1  UNL1        0.1807
     30 F          68.3110   91.5304   12.1953 F       1  UNL1       -0.2005
     31 O          64.2040   83.3501   10.4560 O.3     1  UNL1       -0.4754
     32 C          63.9269   82.2591   11.4474 C.3     1  UNL1        0.2068
     33 C          62.7863   82.3943   12.4122 C.3     1  UNL1        0.0646
     34 C          63.0329   82.2725   13.8868 C.3     1  UNL1        0.0760
     35 N          63.1107   83.5048   14.7384 N.3     1  UNL1       -0.2716
     36 C          62.0360   84.0141   15.6527 C.3     1  UNL1        0.0722
     37 C          62.5380   85.2683   16.3047 C.3     1  UNL1        0.0188
     38 C          63.9229   85.5342   15.7935 C.3     1  UNL1        0.0199
     39 C          64.2769   84.4443   14.8254 C.3     1  UNL1        0.0870
     40 C          65.5699   84.3164   14.0761 C.3     1  UNL1        0.1530
     41 O          66.8184   84.9435   14.6219 O.3     1  UNL1       -0.3806
     42 H          66.7236   85.9089   14.6182 H       1  UNL1        0.2105
@<TRIPOS>BOND
     1    19    20    2
     2    20    18    1
     3    18    13    1
     4    13    14   ar
     5    14    15   ar
     6    15    11    1
     7    11     1    1
     8     1     2   ar
     9     2     3   ar
    10     3     4   ar
    11     4     5   ar
    12     5     6   ar
    13     6     7   ar
    14     7    31    1
    15    31    32    1
    16    32    33    1
    17    33    34    1
    18    34    35    1
    19    35    36    1
    20    36    37    1
    21    37    38    1
    22    38    39    1
    23    39    40    1
    24    40    41    1
    25     7     8   ar
    26     8     9   ar
    27     9    10   ar
    28    15    16   ar
    29    16    17   ar
    30    20    21   am
    31    21    23    1
    32    23    24   ar
    33    24    25   ar
    34    25    26   ar
    35    26    27   ar
    36    27    28    1
    37    27    29   ar
    38    29    30    1
    39    17    13   ar
    40    29    23   ar
    41    10     1   ar
    42    10     5   ar
    43    39    35    1
    44    11    12    1
    45    41    42    1
    46    21    22    1
@<TRIPOS>MOLECULE
*****
 42 46 0 0 0
SMALL
GASTEIGER

@<TRIPOS>ATOM
      1 C          61.7602   88.2787   11.5585 C.ar    1  UNL1        0.1539
      2 N          62.4162   86.9619   11.8513 N.ar    1  UNL1       -0.1328
      3 N          62.3891   85.8665   10.8270 N.ar    1  UNL1       -0.1452
      4 C          61.7061   86.0878    9.5100 C.ar    1  UNL1        0.1223
      5 C          61.0502   87.4046    9.2173 C.ar    1  UNL1        0.0267
      6 C          60.3672   87.6259    7.9002 C.ar    1  UNL1        0.0386
      7 C          59.7112   88.9427    7.6075 C.ar    1  UNL1        0.1386
      8 C          59.7383   90.0382    8.6318 C.ar    1  UNL1        0.0370
      9 C          60.4213   89.8169    9.9488 C.ar    1  UNL1        0.0060
     10 C          61.0772   88.5000   10.2415 C.ar    1  UNL1        0.0352
     11 N          61.7873   89.3743   12.5828 N.pl3   1  UNL1       -0.2941
     12 H          60.9691   89.8859   12.7782 H       1  UNL1        0.1537
     13 N          65.0062   90.8735   14.1501 N.ar    1  UNL1       -0.2387
     14 C          63.7859   91.0034   13.2876 C.ar    1  UNL1        0.1118
     15 C          63.0609   89.6904   13.3094 C.ar    1  UNL1        0.0896
     16 C          63.8332   88.7491   14.1854 C.ar    1  UNL1        0.1363
     17 N          65.0355   89.4802   14.7050 N.ar    1  UNL1       -0.1658
     18 C          66.0194   91.9482   14.4117 C.3     1  UNL1        0.2122
     19 O          68.0568   92.6464   12.9588 O.2     1  UNL1       -0.2726
     20 C          66.5919   92.7334   13.2692 C.2     1  UNL1        0.2510
     21 N          65.6995   93.6058   12.4370 N.am    1  UNL1       -0.2805
     22 H          64.7380   93.6630   12.6407 H       1  UNL1        0.1550
     23 C          66.2720   94.3911   11.2944 C.ar    1  UNL1        0.0804
     24 C          66.2507   95.8905   11.3296 C.ar    1  UNL1        0.0171
     25 C          66.8232   96.6758   10.1870 C.ar    1  UNL1        0.0037
     26 C          67.4170   95.9617    9.0091 C.ar    1  UNL1        0.0321
     27 C          67.4383   94.4622    8.9738 C.ar    1  UNL1        0.1686
     28 F          68.0321   93.7480    7.7960 F       1  UNL1       -0.2018
     29 C          66.8658   93.6769   10.1164 C.ar    1  UNL1        0.1807
     30 F          66.8871   92.1775   10.0812 F       1  UNL1       -0.2005
     31 O          59.0283   89.1640    6.2905 O.3     1  UNL1       -0.4754
     32 C          59.0579   90.5194    5.6487 C.3     1  UNL1        0.2068
     33 C          60.2412   90.9337    4.8253 C.3     1  UNL1        0.0646
     34 C          60.3396   92.3377    4.3068 C.3     1  UNL1        0.0760
     35 N          60.6003   92.5828    2.8501 N.3     1  UNL1       -0.2716
     36 C          59.5594   92.8080    1.7938 C.3     1  UNL1        0.0722
     37 C          60.2634   93.0100    0.4847 C.3     1  UNL1        0.0188
     38 C          61.7395   92.9096    0.7320 C.3     1  UNL1        0.0199
     39 C          61.9477   92.6456    2.1938 C.3     1  UNL1        0.0870
     40 C          63.2709   92.4743    2.8791 C.3     1  UNL1        0.1530
     41 O          63.7292   91.1078    3.2946 O.3     1  UNL1       -0.3806
     42 H          63.1423   90.7668    3.9875 H       1  UNL1        0.2105
@<TRIPOS>BOND
     1    19    20    2
     2    20    18    1
     3    18    13    1
     4    13    14   ar
     5    14    15   ar
     6    15    11    1
     7    11     1    1
     8     1     2   ar
     9     2     3   ar
    10     3     4   ar
    11     4     5   ar
    12     5     6   ar
    13     6     7   ar
    14     7    31    1
    15    31    32    1
    16    32    33    1
    17    33    34    1
    18    34    35    1
    19    35    36    1
    20    36    37    1
    21    37    38    1
    22    38    39    1
    23    39    40    1
    24    40    41    1
    25     7     8   ar
    26     8     9   ar
    27     9    10   ar
    28    15    16   ar
    29    16    17   ar
    30    20    21   am
    31    21    23    1
    32    23    24   ar
    33    24    25   ar
    34    25    26   ar
    35    26    27   ar
    36    27    28    1
    37    27    29   ar
    38    29    30    1
    39    17    13   ar
    40    29    23   ar
    41    10     1   ar
    42    10     5   ar
    43    39    35    1
    44    11    12    1
    45    41    42    1
    46    21    22    1
@<TRIPOS>MOLECULE
*****
 42 46 0 0 0
SMALL
GASTEIGER

@<TRIPOS>ATOM
      1 C          62.6365   84.8174    8.4834 C.ar    1  UNL1        0.1539
      2 N          62.0560   84.3894    7.1682 N.ar    1  UNL1       -0.1328
      3 N          60.8434   85.0834    6.6223 N.ar    1  UNL1       -0.1452
      4 C          60.2113   86.2052    7.3917 C.ar    1  UNL1        0.1223
      5 C          60.7918   86.6331    8.7069 C.ar    1  UNL1        0.0267
      6 C          60.1597   87.7550    9.4763 C.ar    1  UNL1        0.0386
      7 C          60.7402   88.1829   10.7915 C.ar    1  UNL1        0.1386
      8 C          61.9529   87.4890   11.3374 C.ar    1  UNL1        0.0370
      9 C          62.5850   86.3671   10.5681 C.ar    1  UNL1        0.0060
     10 C          62.0044   85.9392    9.2528 C.ar    1  UNL1        0.0352
     11 N          63.8492   84.1234    9.0294 N.pl3   1  UNL1       -0.2941
     12 H          64.7228   84.2412    8.5911 H       1  UNL1        0.1537
     13 N          63.7535   82.4819   12.5453 N.ar    1  UNL1       -0.2387
     14 C          63.9930   83.6685   11.6595 C.ar    1  UNL1        0.1118
     15 C          63.7307   83.2500   10.2431 C.ar    1  UNL1        0.0896
     16 C          63.3291   81.8048   10.2536 C.ar    1  UNL1        0.1363
     17 N          63.3432   81.3301   11.6764 N.ar    1  UNL1       -0.1658
     18 C          63.8988   82.4524   14.0380 C.3     1  UNL1        0.2122
     19 O          62.0807   83.5776   15.5138 O.2     1  UNL1       -0.2726
     20 C          63.4303   83.6160   14.8603 C.2     1  UNL1        0.2510
     21 N          64.3113   84.8182   15.0291 N.am    1  UNL1       -0.2805
     22 H          65.1971   84.8434   14.6002 H       1  UNL1        0.1550
     23 C          63.8428   85.9819   15.8514 C.ar    1  UNL1        0.0804
     24 C          63.2925   85.7542   17.2282 C.ar    1  UNL1        0.0171
     25 C          62.8240   86.9180   18.0505 C.ar    1  UNL1        0.0037
     26 C          62.9057   88.3094   17.4961 C.ar    1  UNL1        0.0321
     27 C          63.4560   88.5371   16.1193 C.ar    1  UNL1        0.1686
     28 F          63.5377   89.9284   15.5649 F       1  UNL1       -0.2018
     29 C          63.9245   87.3734   15.2970 C.ar    1  UNL1        0.1807
     30 F          64.4747   87.6010   13.9203 F       1  UNL1       -0.2005
     31 O          60.1081   89.3047   11.5608 O.3     1  UNL1       -0.4754
     32 C          60.8579   90.5870   11.7694 C.3     1  UNL1        0.2068
     33 C          62.2880   90.6994   11.3310 C.3     1  UNL1        0.0646
     34 C          63.3685   90.9231   12.3471 C.3     1  UNL1        0.0760
     35 N          64.5483   91.7858   12.0098 N.3     1  UNL1       -0.2716
     36 C          64.8446   92.3893   10.6688 C.3     1  UNL1        0.0722
     37 C          66.1184   93.1730   10.7845 C.3     1  UNL1        0.0188
     38 C          66.6093   93.0540   12.1969 C.3     1  UNL1        0.0199
     39 C          65.6389   92.1966   12.9542 C.3     1  UNL1        0.0870
     40 C          65.7412   91.8168   14.4016 C.3     1  UNL1        0.1530
     41 O          65.2886   92.7758   15.4625 O.3     1  UNL1       -0.3806
     42 H          65.8635   93.5570   15.4588 H       1  UNL1        0.2105
@<TRIPOS>BOND
     1    19    20    2
     2    20    18    1
     3    18    13    1
     4    13    14   ar
     5    14    15   ar
     6    15    11    1
     7    11     1    1
     8     1     2   ar
     9     2     3   ar
    10     3     4   ar
    11     4     5   ar
    12     5     6   ar
    13     6     7   ar
    14     7    31    1
    15    31    32    1
    16    32    33    1
    17    33    34    1
    18    34    35    1
    19    35    36    1
    20    36    37    1
    21    37    38    1
    22    38    39    1
    23    39    40    1
    24    40    41    1
    25     7     8   ar
    26     8     9   ar
    27     9    10   ar
    28    15    16   ar
    29    16    17   ar
    30    20    21   am
    31    21    23    1
    32    23    24   ar
    33    24    25   ar
    34    25    26   ar
    35    26    27   ar
    36    27    28    1
    37    27    29   ar
    38    29    30    1
    39    17    13   ar
    40    29    23   ar
    41    10     1   ar
    42    10     5   ar
    43    39    35    1
    44    11    12    1
    45    41    42    1
    46    21    22    1
@<TRIPOS>MOLECULE
*****
 42 46 0 0 0
SMALL
GASTEIGER

@<TRIPOS>ATOM
      1 C          59.3070   88.0988    7.5135 C.ar    1  UNL1        0.1539
      2 N          59.3502   86.8150    6.7388 N.ar    1  UNL1       -0.1328
      3 N          60.2910   85.7218    7.1508 N.ar    1  UNL1       -0.1452
      4 C          61.1886   85.9124    8.3374 C.ar    1  UNL1        0.1223
      5 C          61.1454   87.1961    9.1120 C.ar    1  UNL1        0.0267
      6 C          62.0430   87.3866   10.2986 C.ar    1  UNL1        0.0386
      7 C          61.9998   88.6704   11.0732 C.ar    1  UNL1        0.1386
      8 C          61.0590   89.7636   10.6613 C.ar    1  UNL1        0.0370
      9 C          60.1613   89.5731    9.4747 C.ar    1  UNL1        0.0060
     10 C          60.2046   88.2893    8.7001 C.ar    1  UNL1        0.0352
     11 N          58.3661   89.1920    7.1016 N.pl3   1  UNL1       -0.2941
     12 H          57.4730   89.2533    7.5114 H       1  UNL1        0.1537
     13 N          60.1450   91.5108    4.5473 N.ar    1  UNL1       -0.2387
     14 C          60.1863   90.4241    5.5804 C.ar    1  UNL1        0.1118
     15 C          58.7859   90.1919    6.0653 C.ar    1  UNL1        0.0896
     16 C          57.8792   91.1352    5.3318 C.ar    1  UNL1        0.1363
     17 N          58.7191   91.9503    4.3936 N.ar    1  UNL1       -0.1658
     18 C          61.3228   92.0614    3.7992 C.3     1  UNL1        0.2122
     19 O          62.2780   92.8302    1.5088 O.2     1  UNL1       -0.2726
     20 C          61.1252   92.7087    2.4607 C.2     1  UNL1        0.2510
     21 N          59.7747   93.2346    2.0740 N.am    1  UNL1       -0.2805
     22 H          59.0180   93.1549    2.6987 H       1  UNL1        0.1550
     23 C          59.5770   93.8820    0.7353 C.ar    1  UNL1        0.0804
     24 C          59.4687   95.3745    0.6327 C.ar    1  UNL1        0.0171
     25 C          59.2711   96.0219   -0.7059 C.ar    1  UNL1        0.0037
     26 C          59.1817   95.1767   -1.9419 C.ar    1  UNL1        0.0321
     27 C          59.2901   93.6840   -1.8393 C.ar    1  UNL1        0.1686
     28 F          59.2007   92.8388   -3.0752 F       1  UNL1       -0.2018
     29 C          59.4877   93.0367   -0.5007 C.ar    1  UNL1        0.1807
     30 F          59.5960   91.5441   -0.3980 F       1  UNL1       -0.2005
     31 O          62.8974   88.8609   12.2598 O.3     1  UNL1       -0.4754
     32 C          62.8219   90.1262   13.0619 C.3     1  UNL1        0.2068
     33 C          63.6093   90.2572   14.3319 C.3     1  UNL1        0.0646
     34 C          65.0895   90.4933   14.2756 C.3     1  UNL1        0.0760
     35 N          65.6209   91.8157   13.8078 N.3     1  UNL1       -0.2716
     36 C          65.5985   92.3259   12.3974 C.3     1  UNL1        0.0722
     37 C          66.2317   93.6857   12.3862 C.3     1  UNL1        0.0188
     38 C          66.6454   94.0159   13.7897 C.3     1  UNL1        0.0199
     39 C          66.2679   92.8603   14.6684 C.3     1  UNL1        0.0870
     40 C          66.4970   92.7657   16.1477 C.3     1  UNL1        0.1530
     41 O          65.3302   92.7823   17.0901 O.3     1  UNL1       -0.3806
     42 H          64.8933   93.6474   17.0486 H       1  UNL1        0.2105
@<TRIPOS>BOND
     1    19    20    2
     2    20    18    1
     3    18    13    1
     4    13    14   ar
     5    14    15   ar
     6    15    11    1
     7    11     1    1
     8     1     2   ar
     9     2     3   ar
    10     3     4   ar
    11     4     5   ar
    12     5     6   ar
    13     6     7   ar
    14     7    31    1
    15    31    32    1
    16    32    33    1
    17    33    34    1
    18    34    35    1
    19    35    36    1
    20    36    37    1
    21    37    38    1
    22    38    39    1
    23    39    40    1
    24    40    41    1
    25     7     8   ar
    26     8     9   ar
    27     9    10   ar
    28    15    16   ar
    29    16    17   ar
    30    20    21   am
    31    21    23    1
    32    23    24   ar
    33    24    25   ar
    34    25    26   ar
    35    26    27   ar
    36    27    28    1
    37    27    29   ar
    38    29    30    1
    39    17    13   ar
    40    29    23   ar
    41    10     1   ar
    42    10     5   ar
    43    39    35    1
    44    11    12    1
    45    41    42    1
    46    21    22    1
