@<TRIPOS>MOLECULE
*****
 12 13 0 0 0
SMALL
GASTEIGER

@<TRIPOS>ATOM
      1 C          66.4135   95.3838   11.0870 C.3     1  UNL1        0.0899
      2 N          67.1225   94.2241   10.4526 N.3     1  UNL1       -0.2691
      3 C          67.8917   94.2583    9.1653 C.3     1  UNL1        0.0724
      4 C          68.4314   92.8820    8.9111 C.3     1  UNL1        0.0191
      5 C          67.9957   91.9973   10.0413 C.3     1  UNL1        0.0220
      6 C          67.1868   92.8268   10.9940 C.3     1  UNL1        0.0817
      7 C          66.5533   92.3436   12.2650 C.ar    1  UNL1        0.0114
      8 C          67.4079   92.0320   13.4577 C.ar    1  UNL1        0.0002
      9 C          66.7744   91.5489   14.7286 C.ar    1  UNL1        0.0204
     10 C          65.2863   91.3773   14.8068 C.ar    1  UNL1        0.0989
     11 N          64.4317   91.6889   13.6141 N.ar    1  UNL1       -0.2426
     12 C          65.0652   92.1720   12.3432 C.ar    1  UNL1        0.0959
@<TRIPOS>BOND
     1     1     2    1
     2     2     3    1
     3     3     4    1
     4     4     5    1
     5     5     6    1
     6     6     7    1
     7     7     8   ar
     8     8     9   ar
     9     9    10   ar
    10    10    11   ar
    11    11    12   ar
    12     6     2    1
    13    12     7   ar
@<TRIPOS>MOLECULE
*****
 12 13 0 0 0
SMALL
GASTEIGER

@<TRIPOS>ATOM
      1 C          68.1722   92.0715    9.7272 C.3     1  UNL1        0.0899
      2 N          67.5591   93.4361    9.8373 N.3     1  UNL1       -0.2691
      3 C          68.0362   94.6758    9.1406 C.3     1  UNL1        0.0724
      4 C          67.1333   95.8065    9.5361 C.3     1  UNL1        0.0191
      5 C          66.0982   95.2654   10.4773 C.3     1  UNL1        0.0220
      6 C          66.3613   93.8005   10.6634 C.3     1  UNL1        0.0817
      7 C          65.5663   92.8643   11.5246 C.ar    1  UNL1        0.0114
      8 C          64.5357   91.9677   10.9048 C.ar    1  UNL1        0.0002
      9 C          63.7407   91.0316   11.7660 C.ar    1  UNL1        0.0204
     10 C          63.9763   90.9920   13.2468 C.ar    1  UNL1        0.0989
     11 N          65.0068   91.8885   13.8665 N.ar    1  UNL1       -0.2426
     12 C          65.8018   92.8247   13.0054 C.ar    1  UNL1        0.0959
@<TRIPOS>BOND
     1     1     2    1
     2     2     3    1
     3     3     4    1
     4     4     5    1
     5     5     6    1
     6     6     7    1
     7     7     8   ar
     8     8     9   ar
     9     9    10   ar
    10    10    11   ar
    11    11    12   ar
    12     6     2    1
    13    12     7   ar
@<TRIPOS>MOLECULE
*****
 12 13 0 0 0
SMALL
GASTEIGER

@<TRIPOS>ATOM
      1 C          63.6930   91.4949   10.8822 C.3     1  UNL1        0.0899
      2 N          64.5405   91.5226   12.1196 N.3     1  UNL1       -0.2691
      3 C          64.2263   90.8420   13.4188 C.3     1  UNL1        0.0724
      4 C          65.3425   91.1345   14.3772 C.3     1  UNL1        0.0191
      5 C          66.3466   91.9960   13.6702 C.3     1  UNL1        0.0220
      6 C          65.8509   92.2358   12.2749 C.3     1  UNL1        0.0817
      7 C          66.5439   93.0466   11.2202 C.ar    1  UNL1        0.0114
      8 C          67.5118   92.3874   10.2828 C.ar    1  UNL1        0.0002
      9 C          68.2048   93.1982    9.2282 C.ar    1  UNL1        0.0204
     10 C          67.9300   94.6681    9.1109 C.ar    1  UNL1        0.0989
     11 N          66.9621   95.3273   10.0482 N.ar    1  UNL1       -0.2426
     12 C          66.2691   94.5165   11.1029 C.ar    1  UNL1        0.0959
@<TRIPOS>BOND
     1     1     2    1
     2     2     3    1
     3     3     4    1
     4     4     5    1
     5     5     6    1
     6     6     7    1
     7     7     8   ar
     8     8     9   ar
     9     9    10   ar
    10    10    11   ar
    11    11    12   ar
    12     6     2    1
    13    12     7   ar
@<TRIPOS>MOLECULE
*****
 12 13 0 0 0
SMALL
GASTEIGER

@<TRIPOS>ATOM
      1 C          63.9430   85.2259   13.9605 C.3     1  UNL1        0.0899
      2 N          63.5135   83.8680   13.4900 N.3     1  UNL1       -0.2691
      3 C          63.6038   82.5934   14.2757 C.3     1  UNL1        0.0724
      4 C          63.0643   81.4837   13.4225 C.3     1  UNL1        0.0191
      5 C          62.6406   82.0726   12.1097 C.3     1  UNL1        0.0220
      6 C          62.9182   83.5461   12.1514 C.3     1  UNL1        0.0817
      7 C          62.6479   84.5258   11.0480 C.ar    1  UNL1        0.0114
      8 C          63.3234   84.3635    9.7187 C.ar    1  UNL1        0.0002
      9 C          63.0531   85.3431    8.6155 C.ar    1  UNL1        0.0204
     10 C          62.1072   86.4851    8.8416 C.ar    1  UNL1        0.0989
     11 N          61.4317   86.6475   10.1709 N.ar    1  UNL1       -0.2426
     12 C          61.7020   85.6678   11.2741 C.ar    1  UNL1        0.0959
@<TRIPOS>BOND
     1     1     2    1
     2     2     3    1
     3     3     4    1
     4     4     5    1
     5     5     6    1
     6     6     7    1
     7     7     8   ar
     8     8     9   ar
     9     9    10   ar
    10    10    11   ar
    11    11    12   ar
    12     6     2    1
    13    12     7   ar
@<TRIPOS>MOLECULE
*****
 12 13 0 0 0
SMALL
GASTEIGER

@<TRIPOS>ATOM
      1 C          62.3796   88.8224   10.7294 C.3     1  UNL1        0.0899
      2 N          61.4297   88.1910    9.7552 N.3     1  UNL1       -0.2691
      3 C          60.4176   88.9134    8.9163 C.3     1  UNL1        0.0724
      4 C          59.6875   87.8952    8.0914 C.3     1  UNL1        0.0191
      5 C          60.2484   86.5436    8.4206 C.3     1  UNL1        0.0220
      6 C          61.3251   86.7263    9.4489 C.3     1  UNL1        0.0817
      7 C          62.1521   85.6358   10.0630 C.ar    1  UNL1        0.0114
      8 C          63.0565   84.8050    9.2018 C.ar    1  UNL1        0.0002
      9 C          63.8833   83.7146    9.8159 C.ar    1  UNL1        0.0204
     10 C          63.8058   83.4550   11.2913 C.ar    1  UNL1        0.0989
     11 N          62.9014   84.2858   12.1525 N.ar    1  UNL1       -0.2426
     12 C          62.0745   85.3763   11.5383 C.ar    1  UNL1        0.0959
@<TRIPOS>BOND
     1     1     2    1
     2     2     3    1
     3     3     4    1
     4     4     5    1
     5     5     6    1
     6     6     7    1
     7     7     8   ar
     8     8     9   ar
     9     9    10   ar
    10    10    11   ar
    11    11    12   ar
    12     6     2    1
    13    12     7   ar
@<TRIPOS>MOLECULE
*****
 12 13 0 0 0
SMALL
GASTEIGER

@<TRIPOS>ATOM
      1 C          61.0645   86.7222   11.1530 C.3     1  UNL1        0.0899
      2 N          61.9398   85.9228   10.2339 N.3     1  UNL1       -0.2691
      3 C          62.1258   86.1613    8.7648 C.3     1  UNL1        0.0724
      4 C          63.0838   85.1305    8.2454 C.3     1  UNL1        0.0191
      5 C          63.4898   84.2549    9.3937 C.3     1  UNL1        0.0220
      6 C          62.7828   84.7446   10.6226 C.3     1  UNL1        0.0817
      7 C          62.8985   84.1588   11.9987 C.ar    1  UNL1        0.0114
      8 C          62.5465   82.7197   12.2333 C.ar    1  UNL1        0.0002
      9 C          62.6622   82.1340   13.6093 C.ar    1  UNL1        0.0204
     10 C          63.1299   82.9875   14.7508 C.ar    1  UNL1        0.0989
     11 N          63.4819   84.4265   14.5163 N.ar    1  UNL1       -0.2426
     12 C          63.3662   85.0122   13.1402 C.ar    1  UNL1        0.0959
@<TRIPOS>BOND
     1     1     2    1
     2     2     3    1
     3     3     4    1
     4     4     5    1
     5     5     6    1
     6     6     7    1
     7     7     8   ar
     8     8     9   ar
     9     9    10   ar
    10    10    11   ar
    11    11    12   ar
    12     6     2    1
    13    12     7   ar
@<TRIPOS>MOLECULE
*****
 12 13 0 0 0
SMALL
GASTEIGER

@<TRIPOS>ATOM
      1 C          64.4153   82.4579   11.3797 C.3     1  UNL1        0.0899
      2 N          63.4241   82.0693   12.4363 N.3     1  UNL1       -0.2691
      3 C          62.7361   80.7416   12.5542 C.3     1  UNL1        0.0724
      4 C          61.8337   80.7918   13.7513 C.3     1  UNL1        0.0191
      5 C          61.9639   82.1505   14.3733 C.3     1  UNL1        0.0220
      6 C          62.9469   82.9401   13.5606 C.3     1  UNL1        0.0817
      7 C          63.3770   84.3525   13.8256 C.ar    1  UNL1        0.0114
      8 C          64.1644   84.6775   15.0602 C.ar    1  UNL1        0.0002
      9 C          64.5945   86.0899   15.3252 C.ar    1  UNL1        0.0204
     10 C          64.2373   87.1771   14.3556 C.ar    1  UNL1        0.0989
     11 N          63.4499   86.8521   13.1209 N.ar    1  UNL1       -0.2426
     12 C          63.0198   85.4397   12.8560 C.ar    1  UNL1        0.0959
@<TRIPOS>BOND
     1     1     2    1
     2     2     3    1
     3     3     4    1
     4     4     5    1
     5     5     6    1
     6     6     7    1
     7     7     8   ar
     8     8     9   ar
     9     9    10   ar
    10    10    11   ar
    11    11    12   ar
    12     6     2    1
    13    12     7   ar
@<TRIPOS>MOLECULE
*****
 12 13 0 0 0
SMALL
GASTEIGER

@<TRIPOS>ATOM
      1 C          62.1252   81.0259   13.6929 C.3     1  UNL1        0.0899
      2 N          62.8506   81.7300   12.5848 N.3     1  UNL1       -0.2691
      3 C          63.0884   81.1918   11.2050 C.3     1  UNL1        0.0724
      4 C          63.8504   82.2251   10.4293 C.3     1  UNL1        0.0191
      5 C          64.0836   83.4019   11.3297 C.3     1  UNL1        0.0220
      6 C          63.4657   83.0960   12.6618 C.3     1  UNL1        0.0817
      7 C          63.4633   83.9977   13.8606 C.ar    1  UNL1        0.0114
      8 C          64.6574   84.8561   14.1558 C.ar    1  UNL1        0.0002
      9 C          64.6550   85.7577   15.3545 C.ar    1  UNL1        0.0204
     10 C          63.4584   85.8010   16.2580 C.ar    1  UNL1        0.0989
     11 N          62.2643   84.9426   15.9629 N.ar    1  UNL1       -0.2426
     12 C          62.2667   84.0409   14.7641 C.ar    1  UNL1        0.0959
@<TRIPOS>BOND
     1     1     2    1
     2     2     3    1
     3     3     4    1
     4     4     5    1
     5     5     6    1
     6     6     7    1
     7     7     8   ar
     8     8     9   ar
     9     9    10   ar
    10    10    11   ar
    11    11    12   ar
    12     6     2    1
    13    12     7   ar
@<TRIPOS>MOLECULE
*****
 12 13 0 0 0
SMALL
GASTEIGER

@<TRIPOS>ATOM
      1 C          61.9324   85.8302   11.0391 C.3     1  UNL1        0.0899
      2 N          62.9158   84.6982   11.0776 N.3     1  UNL1       -0.2691
      3 C          63.3759   83.8897    9.9009 C.3     1  UNL1        0.0724
      4 C          64.3562   82.8677   10.3956 C.3     1  UNL1        0.0191
      5 C          64.5019   83.0446   11.8780 C.3     1  UNL1        0.0220
      6 C          63.6116   84.1759   12.2995 C.3     1  UNL1        0.0817
      7 C          63.4463   84.6940   13.6975 C.ar    1  UNL1        0.0114
      8 C          64.3605   85.7655   14.2133 C.ar    1  UNL1        0.0002
      9 C          64.1951   86.2835   15.6112 C.ar    1  UNL1        0.0204
     10 C          63.1155   85.7300   16.4934 C.ar    1  UNL1        0.0989
     11 N          62.2013   84.6585   15.9776 N.ar    1  UNL1       -0.2426
     12 C          62.3667   84.1405   14.5796 C.ar    1  UNL1        0.0959
@<TRIPOS>BOND
     1     1     2    1
     2     2     3    1
     3     3     4    1
     4     4     5    1
     5     5     6    1
     6     6     7    1
     7     7     8   ar
     8     8     9   ar
     9     9    10   ar
    10    10    11   ar
    11    11    12   ar
    12     6     2    1
    13    12     7   ar
