@<TRIPOS>MOLECULE
*****
 8 8 0 0 0
SMALL
GASTEIGER

@<TRIPOS>ATOM
      1 C          67.1943   95.2854    8.3291 C.3     1  UNL1        0.1325
      2 N          66.9838   94.5481    9.6183 N.ar    1  UNL1       -0.3035
      3 C          66.1094   94.9899   10.7541 C.ar    1  UNL1        0.0984
      4 C          66.1960   93.9544   11.8358 C.ar    1  UNL1        0.1197
      5 N          67.1240   92.8725   11.3686 N.ar    1  UNL1       -0.2197
      6 C          67.6109   93.2394    9.9981 C.ar    1  UNL1        0.1677
      7 S          68.5585   92.4382    9.1553 S.3     1  UNL1       -0.1051
      8 H          68.9188   91.3109    9.8253 H       1  UNL1        0.1100
@<TRIPOS>BOND
     1     1     2    1
     2     2     3   ar
     3     3     4   ar
     4     4     5   ar
     5     5     6   ar
     6     6     7    1
     7     6     2   ar
     8     7     8    1
@<TRIPOS>MOLECULE
*****
 8 8 0 0 0
SMALL
GASTEIGER

@<TRIPOS>ATOM
      1 C          65.4660   92.5653   11.3733 C.3     1  UNL1        0.1325
      2 N          66.6702   92.9995   10.5914 N.ar    1  UNL1       -0.3035
      3 C          67.7429   92.1001   10.0526 C.ar    1  UNL1        0.0984
      4 C          68.7488   92.9541    9.3392 C.ar    1  UNL1        0.1197
      5 N          68.2977   94.3813    9.4371 N.ar    1  UNL1       -0.2197
      6 C          67.0131   94.4094   10.2110 C.ar    1  UNL1        0.1677
      7 S          66.2120   95.6326   10.5457 S.3     1  UNL1       -0.1051
      8 H          66.8298   96.7323   10.0371 H       1  UNL1        0.1100
@<TRIPOS>BOND
     1     1     2    1
     2     2     3   ar
     3     3     4   ar
     4     4     5   ar
     5     5     6   ar
     6     6     7    1
     7     6     2   ar
     8     7     8    1
@<TRIPOS>MOLECULE
*****
 8 8 0 0 0
SMALL
GASTEIGER

@<TRIPOS>ATOM
      1 C          64.4366   91.3858   13.0439 C.3     1  UNL1        0.1325
      2 N          65.2287   92.3846   12.2534 N.ar    1  UNL1       -0.3035
      3 C          65.1490   92.5986   10.7709 C.ar    1  UNL1        0.0984
      4 C          66.1106   93.6910   10.4078 C.ar    1  UNL1        0.1197
      5 N          66.7847   94.1523   11.6659 N.ar    1  UNL1       -0.2197
      6 C          66.2396   93.3449   12.8065 C.ar    1  UNL1        0.1677
      7 S          66.6359   93.4749   14.2474 S.3     1  UNL1       -0.1051
      8 H          67.5777   94.4480   14.3725 H       1  UNL1        0.1100
@<TRIPOS>BOND
     1     1     2    1
     2     2     3   ar
     3     3     4   ar
     4     4     5   ar
     5     5     6   ar
     6     6     7    1
     7     6     2   ar
     8     7     8    1
@<TRIPOS>MOLECULE
*****
 8 8 0 0 0
SMALL
GASTEIGER

@<TRIPOS>ATOM
      1 C          64.3768   82.8785   11.2427 C.3     1  UNL1        0.1325
      2 N          64.1159   82.9594   12.7176 N.ar    1  UNL1       -0.3035
      3 C          64.5927   84.0425   13.6393 C.ar    1  UNL1        0.0984
      4 C          64.1039   83.7239   15.0211 C.ar    1  UNL1        0.1197
      5 N          63.3251   82.4437   14.9536 N.ar    1  UNL1       -0.2197
      6 C          63.3325   81.9713   13.5299 C.ar    1  UNL1        0.1677
      7 S          62.6723   80.7288   13.0099 S.3     1  UNL1       -0.1051
      8 H          62.0550   80.0809   14.0340 H       1  UNL1        0.1100
@<TRIPOS>BOND
     1     1     2    1
     2     2     3   ar
     3     3     4   ar
     4     4     5   ar
     5     5     6   ar
     6     6     7    1
     7     6     2   ar
     8     7     8    1
@<TRIPOS>MOLECULE
*****
 8 8 0 0 0
SMALL
GASTEIGER

@<TRIPOS>ATOM
      1 C          65.4236   92.4201   10.8492 C.3     1  UNL1        0.1325
      2 N          66.2446   93.5907   10.3958 N.ar    1  UNL1       -0.3035
      3 C          65.8588   95.0356   10.5107 C.ar    1  UNL1        0.0984
      4 C          66.9714   95.8599    9.9339 C.ar    1  UNL1        0.1197
      5 N          68.0449   94.9243    9.4624 N.ar    1  UNL1       -0.2197
      6 C          67.5957   93.5219    9.7479 C.ar    1  UNL1        0.1677
      7 S          68.3630   92.2704    9.4396 S.3     1  UNL1       -0.1051
      8 H          69.5460   92.5967    8.8533 H       1  UNL1        0.1100
@<TRIPOS>BOND
     1     1     2    1
     2     2     3   ar
     3     3     4   ar
     4     4     5   ar
     5     5     6   ar
     6     6     7    1
     7     6     2   ar
     8     7     8    1
@<TRIPOS>MOLECULE
*****
 8 8 0 0 0
SMALL
GASTEIGER

@<TRIPOS>ATOM
      1 C          64.3268   82.7806   11.0491 C.3     1  UNL1        0.1325
      2 N          63.6942   82.2565   12.3041 N.ar    1  UNL1       -0.3035
      3 C          62.8361   81.0311   12.4137 C.ar    1  UNL1        0.0984
      4 C          62.4202   80.8830   13.8472 C.ar    1  UNL1        0.1197
      5 N          63.0212   82.0170   14.6237 N.ar    1  UNL1       -0.2197
      6 C          63.8085   82.8659   13.6700 C.ar    1  UNL1        0.1677
      7 S          64.5756   84.1063   14.0206 S.3     1  UNL1       -0.1051
      8 H          64.4518   84.3547   15.3520 H       1  UNL1        0.1100
@<TRIPOS>BOND
     1     1     2    1
     2     2     3   ar
     3     3     4   ar
     4     4     5   ar
     5     5     6   ar
     6     6     7    1
     7     6     2   ar
     8     7     8    1
@<TRIPOS>MOLECULE
*****
 8 8 0 0 0
SMALL
GASTEIGER

@<TRIPOS>ATOM
      1 C          62.8113   84.3328   13.4186 C.3     1  UNL1        0.1325
      2 N          62.6653   82.8496   13.2494 N.ar    1  UNL1       -0.3035
      3 C          61.9981   81.9137   14.2132 C.ar    1  UNL1        0.0984
      4 C          62.0812   80.5275   13.6463 C.ar    1  UNL1        0.1197
      5 N          62.7998   80.6066   12.3320 N.ar    1  UNL1       -0.2197
      6 C          63.1608   82.0417   12.0867 C.ar    1  UNL1        0.1677
      7 S          63.8894   82.5753   10.8890 S.3     1  UNL1       -0.1051
      8 H          64.1806   81.5516   10.0424 H       1  UNL1        0.1100
@<TRIPOS>BOND
     1     1     2    1
     2     2     3   ar
     3     3     4   ar
     4     4     5   ar
     5     5     6   ar
     6     6     7    1
     7     6     2   ar
     8     7     8    1
@<TRIPOS>MOLECULE
*****
 8 8 0 0 0
SMALL
GASTEIGER

@<TRIPOS>ATOM
      1 C          68.3569   92.6411    9.1303 C.3     1  UNL1        0.1325
      2 N          67.4913   93.8185    9.4688 N.ar    1  UNL1       -0.3035
      3 C          67.6993   95.2289    9.0023 C.ar    1  UNL1        0.0984
      4 C          66.6024   96.0743    9.5785 C.ar    1  UNL1        0.1197
      5 N          65.7165   95.1865   10.4012 N.ar    1  UNL1       -0.2197
      6 C          66.2658   93.7924   10.3334 C.ar    1  UNL1        0.1677
      7 S          65.6907   92.5842   11.0112 S.3     1  UNL1       -0.1051
      8 H          64.5792   92.9417   11.7086 H       1  UNL1        0.1100
@<TRIPOS>BOND
     1     1     2    1
     2     2     3   ar
     3     3     4   ar
     4     4     5   ar
     5     5     6   ar
     6     6     7    1
     7     6     2   ar
     8     7     8    1
@<TRIPOS>MOLECULE
*****
 8 8 0 0 0
SMALL
GASTEIGER

@<TRIPOS>ATOM
      1 C          63.1191   83.5287   15.2012 C.3     1  UNL1        0.1325
      2 N          63.2818   82.9378   13.8321 N.ar    1  UNL1       -0.3035
      3 C          64.2612   83.3870   12.7886 C.ar    1  UNL1        0.0984
      4 C          64.0783   82.5208   11.5777 C.ar    1  UNL1        0.1197
      5 N          62.9858   81.5362   11.8729 N.ar    1  UNL1       -0.2197
      6 C          62.4936   81.7940   13.2662 C.ar    1  UNL1        0.1677
      7 S          61.4043   81.0402   13.9699 S.3     1  UNL1       -0.1051
      8 H          60.9187   80.0719   13.1476 H       1  UNL1        0.1100
@<TRIPOS>BOND
     1     1     2    1
     2     2     3   ar
     3     3     4   ar
     4     4     5   ar
     5     5     6   ar
     6     6     7    1
     7     6     2   ar
     8     7     8    1
