@<TRIPOS>MOLECULE
*****
 46 50 0 0 0
SMALL
GASTEIGER

@<TRIPOS>ATOM
      1 C          61.7768   86.4899   12.5120 C.3     1  UNL1        0.1209
      2 C          63.4707   83.1644   11.1623 C.ar    1  UNL1       -0.0226
      3 C          63.6367   83.5001    9.7098 C.ar    1  UNL1       -0.0077
      4 C          63.1828   84.8325    9.1914 C.ar    1  UNL1       -0.0122
      5 C          62.5628   85.8291   10.1255 C.ar    1  UNL1        0.0513
      6 CL         62.1089   87.1615    9.6071 Cl      1  UNL1       -0.0828
      7 C          62.3968   85.4933   11.5780 C.ar    1  UNL1        0.0076
      8 C          62.8507   84.1609   12.0963 C.ar    1  UNL1       -0.0061
      9 C          63.9246   81.8319   11.6807 C.3     1  UNL1        0.0289
     10 C          62.9337   80.8905   12.2988 C.3     1  UNL1        0.0367
     11 C          62.7951   80.8209   13.7907 C.3     1  UNL1        0.1426
     12 C          60.2357   80.5373   14.1354 C.3     1  UNL1        0.1741
     13 O          61.5169   81.2527   14.4462 O.3     1  UNL1       -0.3511
     14 C          63.3488   85.1683    7.7389 C.3     1  UNL1        0.0272
     15 C          62.4416   84.5489    6.7175 C.3     1  UNL1        0.0062
     16 C          61.1627   85.2339    6.3366 C.3     1  UNL1        0.0192
     17 C          60.1450   85.5614    7.3888 C.3     1  UNL1        0.0911
     18 N          59.1685   86.6779    7.1659 N.3     1  UNL1       -0.1833
     19 H          58.2606   86.3441    7.4895 H       1  UNL1        0.1484
     20 S          59.3947   88.0125    7.8124 S.O2    1  UNL1        0.0426
     21 C          59.6209   89.3469    8.4590 C.3     1  UNL1        0.1957
     22 O          59.3118   87.3708    9.1657 O.2     1  UNL1       -0.1575
     23 O          59.4776   88.6541    6.4592 O.2     1  UNL1       -0.1575
     24 N          62.6468   87.4416   13.2784 N.am    1  UNL1       -0.2769
     25 C          62.3353   88.9089   13.2778 C.2     1  UNL1        0.2294
     26 O          61.1539   89.4245   12.5108 O.2     1  UNL1       -0.2747
     27 C          63.2053   89.8606   14.0442 C.3     1  UNL1        0.1211
     28 C          63.2848   89.7662   15.5391 C.3     1  UNL1        0.0804
     29 N          64.1547   90.7179   16.3055 N.3     1  UNL1       -0.2969
     30 C          64.9453   91.7640   15.5770 C.3     1  UNL1        0.0714
     31 C          64.8658   91.8584   14.0821 C.3     1  UNL1        0.0490
     32 C          63.9958   90.9067   13.3157 C.3     1  UNL1        0.1224
     33 O          63.1735   90.0290   12.4193 O.3     1  UNL1       -0.3492
     34 C          63.3941   90.4752   11.0043 C.3     1  UNL1        0.1687
     35 C          64.3528   91.6287   11.0261 C.ar    1  UNL1        0.0079
     36 C          64.9352   92.4706    9.9299 C.ar    1  UNL1        0.0299
     37 C          65.8895   93.5793   10.2620 C.ar    1  UNL1        0.1671
     38 F          66.4719   94.4212    9.1658 F       1  UNL1       -0.2018
     39 C          66.2614   93.8459   11.6905 C.ar    1  UNL1        0.1671
     40 F          67.2156   94.9545   12.0228 F       1  UNL1       -0.2018
     41 C          65.6790   93.0040   12.7869 C.ar    1  UNL1        0.0297
     42 C          64.7247   91.8954   12.4547 C.ar    1  UNL1        0.0033
     43 H          64.8250   90.1510   16.8250 H       1  UNL1        0.1233
     44 C          63.8283   86.9260   14.0455 C.3     1  UNL1        0.0758
     45 C          64.6531   85.7759   14.5423 C.3     1  UNL1        0.0215
     46 C          65.0497   87.1832   14.8773 C.3     1  UNL1        0.0215
@<TRIPOS>BOND
     1    12    13    1
     2    13    11    1
     3    11    10    1
     4    10     9    1
     5     9     2    1
     6     2     3   ar
     7     3     4   ar
     8     4    14    1
     9    14    15    1
    10    15    16    1
    11    16    17    1
    12    17    18    1
    13    18    20    1
    14    20    21    1
    15    20    22    2
    16    20    23    2
    17     4     5   ar
    18     5     6    1
    19     5     7   ar
    20     7     1    1
    21     1    24    1
    22    24    25   am
    23    25    26    2
    24    27    25    1
    25    27    28    1
    26    28    29    1
    27    29    30    1
    28    30    31    1
    29    32    31    1
    30    32    33    1
    31    33    34    1
    32    34    35    1
    33    35    36   ar
    34    36    37   ar
    35    37    38    1
    36    37    39   ar
    37    39    40    1
    38    39    41   ar
    39    41    42   ar
    40    24    44    1
    41    44    45    1
    42    45    46    1
    43     7     8   ar
    44     8     2   ar
    45    32    27    1
    46    42    35   ar
    47    46    44    1
    48    42    32    1
    49    18    19    1
    50    29    43    1
@<TRIPOS>MOLECULE
*****
 46 50 0 0 0
SMALL
GASTEIGER

@<TRIPOS>ATOM
      1 C          61.1975   86.7507   11.6781 C.3     1  UNL1        0.1209
      2 C          63.8098   84.5586   13.7079 C.ar    1  UNL1       -0.0226
      3 C          64.2835   83.6195   12.6384 C.ar    1  UNL1       -0.0077
      4 C          63.7285   83.7242   11.2487 C.ar    1  UNL1       -0.0122
      5 C          62.6998   84.7679   10.9286 C.ar    1  UNL1        0.0513
      6 CL         62.1449   84.8727    9.5390 Cl      1  UNL1       -0.0828
      7 C          62.2261   85.7070   11.9982 C.ar    1  UNL1        0.0076
      8 C          62.7811   85.6023   13.3878 C.ar    1  UNL1       -0.0061
      9 C          64.3648   84.4539   15.0975 C.3     1  UNL1        0.0289
     10 C          64.0980   85.5415   16.0955 C.3     1  UNL1        0.0367
     11 C          62.7990   85.5697   16.8449 C.3     1  UNL1        0.1426
     12 C          62.9937   88.1420   17.1531 C.3     1  UNL1        0.1741
     13 O          62.1830   86.8823   17.2290 O.3     1  UNL1       -0.3511
     14 C          64.2022   82.7852   10.1792 C.3     1  UNL1        0.0272
     15 C          63.8113   81.3378   10.2251 C.3     1  UNL1        0.0062
     16 C          62.6502   80.9008   11.0684 C.3     1  UNL1        0.0192
     17 C          62.7322   79.6261   11.8548 C.3     1  UNL1        0.0911
     18 N          62.2835   79.5976   13.2858 N.3     1  UNL1       -0.1833
     19 H          63.0005   79.0952   13.8092 H       1  UNL1        0.1484
     20 S          62.0323   80.8820   14.0189 S.O2    1  UNL1        0.0426
     21 C          61.7812   82.1663   14.7519 C.3     1  UNL1        0.1957
     22 O          63.5036   81.0242   14.2736 O.2     1  UNL1       -0.1575
     23 O          60.5610   80.7397   13.7641 O.2     1  UNL1       -0.1575
     24 N          61.6277   88.1076   11.2053 N.am    1  UNL1       -0.2769
     25 C          62.8822   88.7273   11.7458 C.2     1  UNL1        0.2294
     26 O          63.7065   87.9900   12.7592 O.2     1  UNL1       -0.2747
     27 C          63.3125   90.0843   11.2730 C.3     1  UNL1        0.1211
     28 C          62.8870   90.5774    9.9218 C.3     1  UNL1        0.0804
     29 N          63.3173   91.9344    9.4491 N.3     1  UNL1       -0.2969
     30 C          64.1730   92.7982   10.3275 C.3     1  UNL1        0.0714
     31 C          64.5984   92.3050   11.6786 C.3     1  UNL1        0.0490
     32 C          64.1682   90.9481   12.1514 C.3     1  UNL1        0.1224
     33 O          63.8176   89.6208   12.7562 O.3     1  UNL1       -0.3492
     34 C          64.4517   89.5480   14.1137 C.3     1  UNL1        0.1687
     35 C          65.1942   90.8302   14.3479 C.ar    1  UNL1        0.0079
     36 C          66.0071   91.3216   15.5087 C.ar    1  UNL1        0.0299
     37 C          66.6449   92.6783   15.4568 C.ar    1  UNL1        0.1671
     38 F          67.4579   93.1697   16.6176 F       1  UNL1       -0.2018
     39 C          66.4697   93.5435   14.2441 C.ar    1  UNL1        0.1671
     40 F          67.1074   94.9002   14.1923 F       1  UNL1       -0.2018
     41 C          65.6567   93.0522   13.0832 C.ar    1  UNL1        0.0297
     42 C          65.0190   91.6955   13.1351 C.ar    1  UNL1        0.0033
     43 H          62.4662   92.4624    9.2560 H       1  UNL1        0.1233
     44 C          60.8034   88.8450   10.1919 C.3     1  UNL1        0.0758
     45 C          59.9321   90.0096    9.8251 C.3     1  UNL1        0.0215
     46 C          60.2471   88.9576    8.8034 C.3     1  UNL1        0.0215
@<TRIPOS>BOND
     1    12    13    1
     2    13    11    1
     3    11    10    1
     4    10     9    1
     5     9     2    1
     6     2     3   ar
     7     3     4   ar
     8     4    14    1
     9    14    15    1
    10    15    16    1
    11    16    17    1
    12    17    18    1
    13    18    20    1
    14    20    21    1
    15    20    22    2
    16    20    23    2
    17     4     5   ar
    18     5     6    1
    19     5     7   ar
    20     7     1    1
    21     1    24    1
    22    24    25   am
    23    25    26    2
    24    27    25    1
    25    27    28    1
    26    28    29    1
    27    29    30    1
    28    30    31    1
    29    32    31    1
    30    32    33    1
    31    33    34    1
    32    34    35    1
    33    35    36   ar
    34    36    37   ar
    35    37    38    1
    36    37    39   ar
    37    39    40    1
    38    39    41   ar
    39    41    42   ar
    40    24    44    1
    41    44    45    1
    42    45    46    1
    43     7     8   ar
    44     8     2   ar
    45    32    27    1
    46    42    35   ar
    47    46    44    1
    48    42    32    1
    49    18    19    1
    50    29    43    1
@<TRIPOS>MOLECULE
*****
 46 50 0 0 0
SMALL
GASTEIGER

@<TRIPOS>ATOM
      1 C          61.0299   87.0419   11.9855 C.3     1  UNL1        0.1209
      2 C          62.9770   84.3712    9.7886 C.ar    1  UNL1       -0.0226
      3 C          63.2961   83.3323   10.8223 C.ar    1  UNL1       -0.0077
      4 C          62.8599   83.5299   12.2439 C.ar    1  UNL1       -0.0122
      5 C          62.1045   84.7664   12.6316 C.ar    1  UNL1        0.0513
      6 CL         61.6683   84.9640   14.0531 Cl      1  UNL1       -0.0828
      7 C          61.7853   85.8054   11.5978 C.ar    1  UNL1        0.0076
      8 C          62.2215   85.6078   10.1763 C.ar    1  UNL1       -0.0061
      9 C          63.4132   84.1737    8.3670 C.3     1  UNL1        0.0289
     10 C          62.8054   85.0019    7.2740 C.3     1  UNL1        0.0367
     11 C          61.6594   84.4606    6.4718 C.3     1  UNL1        0.1426
     12 C          60.0393   86.0949    7.6778 C.3     1  UNL1        0.1741
     13 O          60.2699   84.9741    6.7080 O.3     1  UNL1       -0.3511
     14 C          63.1791   82.4910   13.2777 C.3     1  UNL1        0.0272
     15 C          64.1667   82.7938   14.3652 C.3     1  UNL1        0.0062
     16 C          65.0867   83.9716   14.2363 C.3     1  UNL1        0.0192
     17 C          64.8739   85.1865   15.0899 C.3     1  UNL1        0.0911
     18 N          63.8952   85.1429   16.2258 N.3     1  UNL1       -0.1833
     19 H          64.3717   84.6938   17.0079 H       1  UNL1        0.1484
     20 S          63.3013   86.4153   16.7533 S.O2    1  UNL1        0.0426
     21 C          62.7074   87.6877   17.2808 C.3     1  UNL1        0.1957
     22 O          64.0358   87.1938   15.7025 O.2     1  UNL1       -0.1575
     23 O          62.5667   85.6368   17.8042 O.2     1  UNL1       -0.1575
     24 N          61.5025   88.3868   11.5187 N.am    1  UNL1       -0.2769
     25 C          62.8927   88.8473   11.8430 C.2     1  UNL1        0.2294
     26 O          63.8104   87.9630   12.6340 O.2     1  UNL1       -0.2747
     27 C          63.3653   90.1923   11.3761 C.3     1  UNL1        0.1211
     28 C          62.9627   90.7008   10.0237 C.3     1  UNL1        0.0804
     29 N          63.4352   92.0457    9.5569 N.3     1  UNL1       -0.2969
     30 C          64.3105   92.8820   10.4426 C.3     1  UNL1        0.0714
     31 C          64.7132   92.3735   11.7951 C.3     1  UNL1        0.0490
     32 C          64.2406   91.0286   12.2618 C.3     1  UNL1        0.1224
     33 O          63.8477   89.7108   12.8612 O.3     1  UNL1       -0.3492
     34 C          64.4711   89.6163   14.2222 C.3     1  UNL1        0.1687
     35 C          65.2493   90.8757   14.4641 C.ar    1  UNL1        0.0079
     36 C          66.0692   91.3404   15.6310 C.ar    1  UNL1        0.0299
     37 C          66.7467   92.6780   15.5864 C.ar    1  UNL1        0.1671
     38 F          67.5666   93.1427   16.7532 F       1  UNL1       -0.2018
     39 C          66.6042   93.5508   14.3748 C.ar    1  UNL1        0.1671
     40 F          67.2816   94.8883   14.3302 F       1  UNL1       -0.2018
     41 C          65.7843   93.0861   13.2078 C.ar    1  UNL1        0.0297
     42 C          65.1068   91.7485   13.2525 C.ar    1  UNL1        0.0033
     43 H          62.6012   92.5989    9.3601 H       1  UNL1        0.1233
     44 C          60.5849   89.2712   10.7276 C.3     1  UNL1        0.0758
     45 C          59.6470   90.4399   10.6587 C.3     1  UNL1        0.0215
     46 C          59.9333   89.6344    9.4262 C.3     1  UNL1        0.0215
@<TRIPOS>BOND
     1    12    13    1
     2    13    11    1
     3    11    10    1
     4    10     9    1
     5     9     2    1
     6     2     3   ar
     7     3     4   ar
     8     4    14    1
     9    14    15    1
    10    15    16    1
    11    16    17    1
    12    17    18    1
    13    18    20    1
    14    20    21    1
    15    20    22    2
    16    20    23    2
    17     4     5   ar
    18     5     6    1
    19     5     7   ar
    20     7     1    1
    21     1    24    1
    22    24    25   am
    23    25    26    2
    24    27    25    1
    25    27    28    1
    26    28    29    1
    27    29    30    1
    28    30    31    1
    29    32    31    1
    30    32    33    1
    31    33    34    1
    32    34    35    1
    33    35    36   ar
    34    36    37   ar
    35    37    38    1
    36    37    39   ar
    37    39    40    1
    38    39    41   ar
    39    41    42   ar
    40    24    44    1
    41    44    45    1
    42    45    46    1
    43     7     8   ar
    44     8     2   ar
    45    32    27    1
    46    42    35   ar
    47    46    44    1
    48    42    32    1
    49    18    19    1
    50    29    43    1
@<TRIPOS>MOLECULE
*****
 46 50 0 0 0
SMALL
GASTEIGER

@<TRIPOS>ATOM
      1 C          60.1682   90.3919   10.2214 C.3     1  UNL1        0.1209
      2 C          59.2818   89.3841    6.4866 C.ar    1  UNL1       -0.0226
      3 C          59.5149   87.9030    6.5297 C.ar    1  UNL1       -0.0077
      4 C          59.9658   87.2515    7.8034 C.ar    1  UNL1       -0.0122
      5 C          60.1835   88.0811    9.0340 C.ar    1  UNL1        0.0513
      6 CL         60.6344   87.4296   10.3076 Cl      1  UNL1       -0.0828
      7 C          59.9504   89.5623    8.9908 C.ar    1  UNL1        0.0076
      8 C          59.4995   90.2138    7.7172 C.ar    1  UNL1       -0.0061
      9 C          58.8309   90.0357    5.2129 C.3     1  UNL1        0.0289
     10 C          58.4919   91.4968    5.1971 C.3     1  UNL1        0.0367
     11 C          59.3814   92.4654    4.4757 C.3     1  UNL1        0.1426
     12 C          60.3398   93.2480    2.1912 C.3     1  UNL1        0.1741
     13 O          59.2093   92.6876    3.0023 O.3     1  UNL1       -0.3511
     14 C          60.1989   85.7703    7.8465 C.3     1  UNL1        0.0272
     15 C          61.3743   85.1750    7.1296 C.3     1  UNL1        0.0062
     16 C          62.7336   85.2060    7.7633 C.3     1  UNL1        0.0192
     17 C          62.8792   84.9725    9.2378 C.3     1  UNL1        0.0911
     18 N          63.7120   83.8294    9.7375 N.3     1  UNL1       -0.1833
     19 H          64.6760   84.0286    9.4704 H       1  UNL1        0.1484
     20 S          63.7279   83.4961   11.1999 S.O2    1  UNL1        0.0426
     21 C          63.7438   83.1627   12.6623 C.3     1  UNL1        0.1957
     22 O          62.5753   84.4292   11.4251 O.2     1  UNL1       -0.1575
     23 O          64.8804   82.5629   10.9747 O.2     1  UNL1       -0.1575
     24 N          60.9377   89.8286   11.3792 N.am    1  UNL1       -0.2769
     25 C          62.4232   89.6486   11.2760 C.2     1  UNL1        0.2294
     26 O          63.1393   90.0319   10.0149 O.2     1  UNL1       -0.2747
     27 C          63.1927   89.0853   12.4339 C.3     1  UNL1        0.1211
     28 C          62.9641   87.6678   12.8678 C.3     1  UNL1        0.0804
     29 N          63.7336   87.1045   14.0256 N.3     1  UNL1       -0.2969
     30 C          64.7317   87.9588   14.7495 C.3     1  UNL1        0.0714
     31 C          64.9603   89.3763   14.3156 C.3     1  UNL1        0.0490
     32 C          64.1908   89.9396   13.1578 C.3     1  UNL1        0.1224
     33 O          63.4995   90.6369   12.0237 O.3     1  UNL1       -0.3492
     34 C          64.0323   92.0370   11.9468 C.3     1  UNL1        0.1687
     35 C          65.0528   92.2051   13.0332 C.ar    1  UNL1        0.0079
     36 C          65.9055   93.3709   13.4377 C.ar    1  UNL1        0.0299
     37 C          66.8562   93.2405   14.5907 C.ar    1  UNL1        0.1671
     38 F          67.7089   94.4063   14.9951 F       1  UNL1       -0.2018
     39 C          66.9541   91.9443   15.3391 C.ar    1  UNL1        0.1671
     40 F          67.9048   91.8139   16.4920 F       1  UNL1       -0.2018
     41 C          66.1014   90.7783   14.9346 C.ar    1  UNL1        0.0297
     42 C          65.1508   90.9087   13.7817 C.ar    1  UNL1        0.0033
     43 H          64.2409   86.2922   13.6747 H       1  UNL1        0.1233
     44 C          60.2216   89.4453   12.6403 C.3     1  UNL1        0.0758
     45 C          60.2043   89.3079   14.1339 C.3     1  UNL1        0.0215
     46 C          58.9986   88.9188   13.3310 C.3     1  UNL1        0.0215
@<TRIPOS>BOND
     1    12    13    1
     2    13    11    1
     3    11    10    1
     4    10     9    1
     5     9     2    1
     6     2     3   ar
     7     3     4   ar
     8     4    14    1
     9    14    15    1
    10    15    16    1
    11    16    17    1
    12    17    18    1
    13    18    20    1
    14    20    21    1
    15    20    22    2
    16    20    23    2
    17     4     5   ar
    18     5     6    1
    19     5     7   ar
    20     7     1    1
    21     1    24    1
    22    24    25   am
    23    25    26    2
    24    27    25    1
    25    27    28    1
    26    28    29    1
    27    29    30    1
    28    30    31    1
    29    32    31    1
    30    32    33    1
    31    33    34    1
    32    34    35    1
    33    35    36   ar
    34    36    37   ar
    35    37    38    1
    36    37    39   ar
    37    39    40    1
    38    39    41   ar
    39    41    42   ar
    40    24    44    1
    41    44    45    1
    42    45    46    1
    43     7     8   ar
    44     8     2   ar
    45    32    27    1
    46    42    35   ar
    47    46    44    1
    48    42    32    1
    49    18    19    1
    50    29    43    1
@<TRIPOS>MOLECULE
*****
 46 50 0 0 0
SMALL
GASTEIGER

@<TRIPOS>ATOM
      1 C          60.8505   93.2934   -1.8742 C.3     1  UNL1        0.1209
      2 C          61.3268   95.5656    1.3446 C.ar    1  UNL1       -0.0226
      3 C          60.5778   94.7662    2.3692 C.ar    1  UNL1       -0.0077
      4 C          59.9196   93.4758    1.9794 C.ar    1  UNL1       -0.0122
      5 C          60.0105   92.9849    0.5649 C.ar    1  UNL1        0.0513
      6 CL         59.3524   91.6946    0.1751 Cl      1  UNL1       -0.0828
      7 C          60.7596   93.7844   -0.4597 C.ar    1  UNL1        0.0076
      8 C          61.4177   95.0747   -0.0699 C.ar    1  UNL1       -0.0061
      9 C          61.9849   96.8559    1.7344 C.3     1  UNL1        0.0289
     10 C          63.3445   96.8429    2.3679 C.3     1  UNL1        0.0367
     11 C          64.5459   96.4561    1.5575 C.3     1  UNL1        0.1426
     12 C          64.6934   93.8903    1.1769 C.3     1  UNL1        0.1741
     13 O          65.2271   95.1430    1.8060 O.3     1  UNL1       -0.3511
     14 C          59.1706   92.6765    3.0040 C.3     1  UNL1        0.0272
     15 C          59.8454   92.2750    4.2820 C.3     1  UNL1        0.0062
     16 C          59.8597   90.8352    4.7026 C.3     1  UNL1        0.0192
     17 C          59.2287   90.4268    6.0006 C.3     1  UNL1        0.0911
     18 N          59.0536   88.9727    6.3246 N.3     1  UNL1       -0.1833
     19 H          59.5969   88.4504    5.6372 H       1  UNL1        0.1484
     20 S          59.4486   88.4522    7.6749 S.O2    1  UNL1        0.0426
     21 C          59.8436   87.9319    9.0251 C.3     1  UNL1        0.1957
     22 O          60.1836   89.7300    7.9523 O.2     1  UNL1       -0.1575
     23 O          58.7135   87.1745    7.3974 O.2     1  UNL1       -0.1575
     24 N          60.0550   93.9653   -2.9539 N.am    1  UNL1       -0.2769
     25 C          58.8857   93.2591   -3.5736 C.2     1  UNL1        0.2294
     26 O          58.5119   91.8812   -3.1138 O.2     1  UNL1       -0.2747
     27 C          58.0901   93.9310   -4.6534 C.3     1  UNL1        0.1211
     28 C          58.6491   94.0371   -6.0412 C.3     1  UNL1        0.0804
     29 N          57.8535   94.7090   -7.1208 N.3     1  UNL1       -0.2969
     30 C          56.4990   95.2748   -6.8126 C.3     1  UNL1        0.0714
     31 C          55.9400   95.1687   -5.4247 C.3     1  UNL1        0.0490
     32 C          56.7355   94.4968   -4.3451 C.3     1  UNL1        0.1224
     33 O          57.4113   93.8564   -3.1689 O.3     1  UNL1       -0.3492
     34 C          56.4960   93.9763   -1.9866 C.3     1  UNL1        0.1687
     35 C          55.2546   94.6909   -2.4320 C.ar    1  UNL1        0.0079
     36 C          54.0086   95.0902   -1.6986 C.ar    1  UNL1        0.0299
     37 C          52.9105   95.8112   -2.4228 C.ar    1  UNL1        0.1671
     38 F          51.6645   96.2105   -1.6894 F       1  UNL1       -0.2018
     39 C          53.0586   96.1329   -3.8804 C.ar    1  UNL1        0.1671
     40 F          51.9605   96.8539   -4.6046 F       1  UNL1       -0.2018
     41 C          54.3046   95.7336   -4.6138 C.ar    1  UNL1        0.0297
     42 C          55.4026   95.0126   -3.8896 C.ar    1  UNL1        0.0033
     43 H          57.7234   94.0208   -7.8623 H       1  UNL1        0.1233
     44 C          60.4287   95.3433   -3.4138 C.3     1  UNL1        0.0758
     45 C          60.0547   96.7730   -3.6709 C.3     1  UNL1        0.0215
     46 C          61.4500   96.3003   -3.9533 C.3     1  UNL1        0.0215
@<TRIPOS>BOND
     1    12    13    1
     2    13    11    1
     3    11    10    1
     4    10     9    1
     5     9     2    1
     6     2     3   ar
     7     3     4   ar
     8     4    14    1
     9    14    15    1
    10    15    16    1
    11    16    17    1
    12    17    18    1
    13    18    20    1
    14    20    21    1
    15    20    22    2
    16    20    23    2
    17     4     5   ar
    18     5     6    1
    19     5     7   ar
    20     7     1    1
    21     1    24    1
    22    24    25   am
    23    25    26    2
    24    27    25    1
    25    27    28    1
    26    28    29    1
    27    29    30    1
    28    30    31    1
    29    32    31    1
    30    32    33    1
    31    33    34    1
    32    34    35    1
    33    35    36   ar
    34    36    37   ar
    35    37    38    1
    36    37    39   ar
    37    39    40    1
    38    39    41   ar
    39    41    42   ar
    40    24    44    1
    41    44    45    1
    42    45    46    1
    43     7     8   ar
    44     8     2   ar
    45    32    27    1
    46    42    35   ar
    47    46    44    1
    48    42    32    1
    49    18    19    1
    50    29    43    1
@<TRIPOS>MOLECULE
*****
 46 50 0 0 0
SMALL
GASTEIGER

@<TRIPOS>ATOM
      1 C          61.7506   86.5063   12.9288 C.3     1  UNL1        0.1209
      2 C          62.0178   85.8401    9.0256 C.ar    1  UNL1       -0.0226
      3 C          63.0022   84.7087    8.9978 C.ar    1  UNL1       -0.0077
      4 C          63.5695   84.1765   10.2804 C.ar    1  UNL1       -0.0122
      5 C          63.1523   84.7757   11.5907 C.ar    1  UNL1        0.0513
      6 CL         63.7196   84.2435   12.8733 Cl      1  UNL1       -0.0828
      7 C          62.1678   85.9071   11.6184 C.ar    1  UNL1        0.0076
      8 C          61.6006   86.4393   10.3359 C.ar    1  UNL1       -0.0061
      9 C          61.4505   86.3723    7.7430 C.3     1  UNL1        0.0289
     10 C          60.0179   86.1044    7.3884 C.3     1  UNL1        0.0367
     11 C          58.9530   87.0873    7.7756 C.3     1  UNL1        0.1426
     12 C          59.3156   89.4015    6.6519 C.3     1  UNL1        0.1741
     13 O          59.2827   88.5465    7.8839 O.3     1  UNL1       -0.3511
     14 C          64.5540   83.0451   10.2527 C.3     1  UNL1        0.0272
     15 C          64.0684   81.6270   10.3066 C.3     1  UNL1        0.0062
     16 C          62.8708   81.2754   11.1387 C.3     1  UNL1        0.0192
     17 C          62.8106   79.9540   11.8459 C.3     1  UNL1        0.0911
     18 N          62.3104   79.8813   13.2581 N.3     1  UNL1       -0.1833
     19 H          62.9447   79.2628   13.7637 H       1  UNL1        0.1484
     20 S          62.1843   81.1334   14.0746 S.O2    1  UNL1        0.0426
     21 C          62.0582   82.3854   14.8909 C.3     1  UNL1        0.1957
     22 O          60.6918   81.0719   13.9382 O.2     1  UNL1       -0.1575
     23 O          63.6768   81.1948   14.2110 O.2     1  UNL1       -0.1575
     24 N          62.6501   87.4824   13.6274 N.am    1  UNL1       -0.2769
     25 C          62.4082   88.9564   13.4898 C.2     1  UNL1        0.2294
     26 O          61.2669   89.4542   12.6536 O.2     1  UNL1       -0.2747
     27 C          63.3078   89.9324   14.1885 C.3     1  UNL1        0.1211
     28 C          63.4460   89.8890   15.6814 C.3     1  UNL1        0.0804
     29 N          64.3456   90.8651   16.3800 N.3     1  UNL1       -0.2969
     30 C          65.1069   91.8846   15.5857 C.3     1  UNL1        0.0714
     31 C          64.9687   91.9280   14.0927 C.3     1  UNL1        0.0490
     32 C          64.0692   90.9519   13.3941 C.3     1  UNL1        0.1224
     33 O          63.2121   90.0453   12.5612 O.3     1  UNL1       -0.3492
     34 C          63.3770   90.4426   11.1242 C.3     1  UNL1        0.1687
     35 C          64.3359   91.5948   11.0689 C.ar    1  UNL1        0.0079
     36 C          64.8748   92.3980    9.9225 C.ar    1  UNL1        0.0299
     37 C          65.8416   93.5160   10.1788 C.ar    1  UNL1        0.1671
     38 F          66.3805   94.3191    9.0324 F       1  UNL1       -0.2018
     39 C          66.2693   93.8307   11.5816 C.ar    1  UNL1        0.1671
     40 F          67.2360   94.9486   11.8380 F       1  UNL1       -0.2018
     41 C          65.7304   93.0275   12.7282 C.ar    1  UNL1        0.0297
     42 C          64.7637   91.9096   12.4718 C.ar    1  UNL1        0.0033
     43 H          65.0356   90.3153   16.8918 H       1  UNL1        0.1233
     44 C          63.7916   86.9845   14.4636 C.3     1  UNL1        0.0758
     45 C          64.2968   86.3380   15.7194 C.3     1  UNL1        0.0215
     46 C          65.2634   86.7687   14.6563 C.3     1  UNL1        0.0215
@<TRIPOS>BOND
     1    12    13    1
     2    13    11    1
     3    11    10    1
     4    10     9    1
     5     9     2    1
     6     2     3   ar
     7     3     4   ar
     8     4    14    1
     9    14    15    1
    10    15    16    1
    11    16    17    1
    12    17    18    1
    13    18    20    1
    14    20    21    1
    15    20    22    2
    16    20    23    2
    17     4     5   ar
    18     5     6    1
    19     5     7   ar
    20     7     1    1
    21     1    24    1
    22    24    25   am
    23    25    26    2
    24    27    25    1
    25    27    28    1
    26    28    29    1
    27    29    30    1
    28    30    31    1
    29    32    31    1
    30    32    33    1
    31    33    34    1
    32    34    35    1
    33    35    36   ar
    34    36    37   ar
    35    37    38    1
    36    37    39   ar
    37    39    40    1
    38    39    41   ar
    39    41    42   ar
    40    24    44    1
    41    44    45    1
    42    45    46    1
    43     7     8   ar
    44     8     2   ar
    45    32    27    1
    46    42    35   ar
    47    46    44    1
    48    42    32    1
    49    18    19    1
    50    29    43    1
@<TRIPOS>MOLECULE
*****
 46 50 0 0 0
SMALL
GASTEIGER

@<TRIPOS>ATOM
      1 C          64.1001   88.3621   12.9650 C.3     1  UNL1        0.1209
      2 C          63.2231   88.4075   16.8352 C.ar    1  UNL1       -0.0226
      3 C          63.4528   89.8535   17.1610 C.ar    1  UNL1       -0.0077
      4 C          63.8983   90.8025   16.0881 C.ar    1  UNL1       -0.0122
      5 C          64.1141   90.3054   14.6895 C.ar    1  UNL1        0.0513
      6 CL         64.5596   91.2543   13.6166 Cl      1  UNL1       -0.0828
      7 C          63.8844   88.8593   14.3637 C.ar    1  UNL1        0.0076
      8 C          63.4389   87.9104   15.4366 C.ar    1  UNL1       -0.0061
      9 C          62.7776   87.4585   17.9081 C.3     1  UNL1        0.0289
     10 C          62.1212   86.1618   17.5372 C.3     1  UNL1        0.0367
     11 C          62.8181   85.2051   16.6158 C.3     1  UNL1        0.1426
     12 C          62.4488   83.2949   14.8940 C.3     1  UNL1        0.1741
     13 O          62.0971   84.6543   15.4213 O.3     1  UNL1       -0.3511
     14 C          64.1280   92.2486   16.4139 C.3     1  UNL1        0.0272
     15 C          65.4910   92.7161   16.8306 C.3     1  UNL1        0.0062
     16 C          66.6777   92.4435   15.9545 C.3     1  UNL1        0.0192
     17 C          67.1281   93.4723   14.9602 C.3     1  UNL1        0.0911
     18 N          67.5512   93.0508   13.5843 N.3     1  UNL1       -0.1833
     19 H          67.5656   92.0309   13.5802 H       1  UNL1        0.1484
     20 S          66.7503   93.4773   12.3898 S.O2    1  UNL1        0.0426
     21 C          65.9495   93.9038   11.1953 C.3     1  UNL1        0.1957
     22 O          66.0496   94.5059   13.2269 O.2     1  UNL1       -0.1575
     23 O          67.4511   92.4486   11.5526 O.2     1  UNL1       -0.1575
     24 N          62.9788   88.4117   11.9701 N.am    1  UNL1       -0.2769
     25 C          62.1308   87.1969   11.7346 C.2     1  UNL1        0.2294
     26 O          62.4043   85.9327   12.4940 O.2     1  UNL1       -0.2747
     27 C          61.0094   87.2465   10.7396 C.3     1  UNL1        0.1211
     28 C          59.7639   88.0221   11.0513 C.3     1  UNL1        0.0804
     29 N          58.6425   88.0717   10.0563 N.3     1  UNL1       -0.2969
     30 C          58.7667   87.3456    8.7496 C.3     1  UNL1        0.0714
     31 C          60.0121   86.5701    8.4379 C.3     1  UNL1        0.0490
     32 C          61.1335   86.5205    9.4329 C.3     1  UNL1        0.1224
     33 O          62.3315   86.3806   10.3247 O.3     1  UNL1       -0.3492
     34 C          63.3381   85.5223    9.6177 C.3     1  UNL1        0.1687
     35 C          62.7623   85.1317    8.2887 C.ar    1  UNL1        0.0079
     36 C          63.3026   84.2940    7.1679 C.ar    1  UNL1        0.0299
     37 C          62.4805   84.0732    5.9328 C.ar    1  UNL1        0.1671
     38 F          63.0208   83.2356    4.8120 F       1  UNL1       -0.2018
     39 C          61.1180   84.6902    5.8186 C.ar    1  UNL1        0.1671
     40 F          60.2959   84.4694    4.5836 F       1  UNL1       -0.2018
     41 C          60.5776   85.5279    6.9395 C.ar    1  UNL1        0.0297
     42 C          61.3998   85.7487    8.1745 C.ar    1  UNL1        0.0033
     43 H          58.4900   89.0552    9.8333 H       1  UNL1        0.1233
     44 C          62.7053   89.6760   11.2105 C.3     1  UNL1        0.0758
     45 C          61.7678   90.7800   10.8203 C.3     1  UNL1        0.0215
     46 C          63.1690   90.7616   10.2852 C.3     1  UNL1        0.0215
@<TRIPOS>BOND
     1    12    13    1
     2    13    11    1
     3    11    10    1
     4    10     9    1
     5     9     2    1
     6     2     3   ar
     7     3     4   ar
     8     4    14    1
     9    14    15    1
    10    15    16    1
    11    16    17    1
    12    17    18    1
    13    18    20    1
    14    20    21    1
    15    20    22    2
    16    20    23    2
    17     4     5   ar
    18     5     6    1
    19     5     7   ar
    20     7     1    1
    21     1    24    1
    22    24    25   am
    23    25    26    2
    24    27    25    1
    25    27    28    1
    26    28    29    1
    27    29    30    1
    28    30    31    1
    29    32    31    1
    30    32    33    1
    31    33    34    1
    32    34    35    1
    33    35    36   ar
    34    36    37   ar
    35    37    38    1
    36    37    39   ar
    37    39    40    1
    38    39    41   ar
    39    41    42   ar
    40    24    44    1
    41    44    45    1
    42    45    46    1
    43     7     8   ar
    44     8     2   ar
    45    32    27    1
    46    42    35   ar
    47    46    44    1
    48    42    32    1
    49    18    19    1
    50    29    43    1
@<TRIPOS>MOLECULE
*****
 46 50 0 0 0
SMALL
GASTEIGER

@<TRIPOS>ATOM
      1 C          62.8273   89.3842   10.1986 C.3     1  UNL1        0.1209
      2 C          62.3237   85.6656    8.9070 C.ar    1  UNL1       -0.0226
      3 C          60.9147   85.7311    8.3968 C.ar    1  UNL1       -0.0077
      4 C          60.1432   87.0143    8.4872 C.ar    1  UNL1       -0.0122
      5 C          60.7807   88.2320    9.0877 C.ar    1  UNL1        0.0513
      6 CL         60.0092   89.5152    9.1781 Cl      1  UNL1       -0.0828
      7 C          62.1898   88.1665    9.5980 C.ar    1  UNL1        0.0076
      8 C          62.9612   86.8833    9.5076 C.ar    1  UNL1       -0.0061
      9 C          63.0953   84.3824    8.8166 C.3     1  UNL1        0.0289
     10 C          63.8561   83.8793   10.0074 C.3     1  UNL1        0.0367
     11 C          63.9220   82.4073   10.2882 C.3     1  UNL1        0.1426
     12 C          63.7312   81.6260   12.7586 C.3     1  UNL1        0.1741
     13 O          63.1124   81.8200   11.4061 O.3     1  UNL1       -0.3511
     14 C          58.7341   87.0798    7.9769 C.3     1  UNL1        0.0272
     15 C          58.3058   88.2199    7.1014 C.3     1  UNL1        0.0062
     16 C          59.3284   88.9921    6.3216 C.3     1  UNL1        0.0192
     17 C          58.9576   90.2998    5.6875 C.3     1  UNL1        0.0911
     18 N          60.0288   91.2745    5.2970 N.3     1  UNL1       -0.1833
     19 H          60.8895   90.7381    5.1884 H       1  UNL1        0.1484
     20 S          59.8741   92.1012    4.0549 S.O2    1  UNL1        0.0426
     21 C          59.7195   92.9278    2.8129 C.3     1  UNL1        0.1957
     22 O          61.3408   91.9564    3.7760 O.2     1  UNL1       -0.1575
     23 O          58.4074   92.2459    4.3339 O.2     1  UNL1       -0.1575
     24 N          63.1488   89.4174   11.6633 N.am    1  UNL1       -0.2769
     25 C          63.2865   90.7325   12.3714 C.2     1  UNL1        0.2294
     26 O          63.1029   92.0146   11.6147 O.2     1  UNL1       -0.2747
     27 C          63.6080   90.7656   13.8362 C.3     1  UNL1        0.1211
     28 C          62.5782   90.3390   14.8399 C.3     1  UNL1        0.0804
     29 N          62.8996   90.3721   16.3046 N.3     1  UNL1       -0.2969
     30 C          64.2510   90.8318   16.7657 C.3     1  UNL1        0.0714
     31 C          65.2808   91.2584   15.7620 C.3     1  UNL1        0.0490
     32 C          64.9593   91.2253   14.2973 C.3     1  UNL1        0.1224
     33 O          64.7834   91.2459   12.8077 O.3     1  UNL1       -0.3492
     34 C          66.0612   91.7395   12.1967 C.3     1  UNL1        0.1687
     35 C          67.0271   92.0240   13.3086 C.ar    1  UNL1        0.0079
     36 C          68.4386   92.5314   13.3067 C.ar    1  UNL1        0.0299
     37 C          69.1692   92.7210   14.6030 C.ar    1  UNL1        0.1671
     38 F          70.5807   93.2284   14.6011 F       1  UNL1       -0.2018
     39 C          68.4882   92.4032   15.9012 C.ar    1  UNL1        0.1671
     40 F          69.2188   92.5928   17.1974 F       1  UNL1       -0.2018
     41 C          67.0766   91.8958   15.9031 C.ar    1  UNL1        0.0297
     42 C          66.3460   91.7062   14.6068 C.ar    1  UNL1        0.0033
     43 H          62.7766   89.4220   16.6546 H       1  UNL1        0.1233
     44 C          63.3324   88.1353   12.4201 C.3     1  UNL1        0.0758
     45 C          63.0499   86.6712   12.5832 C.3     1  UNL1        0.0215
     46 C          63.9331   87.3789   13.5677 C.3     1  UNL1        0.0215
@<TRIPOS>BOND
     1    12    13    1
     2    13    11    1
     3    11    10    1
     4    10     9    1
     5     9     2    1
     6     2     3   ar
     7     3     4   ar
     8     4    14    1
     9    14    15    1
    10    15    16    1
    11    16    17    1
    12    17    18    1
    13    18    20    1
    14    20    21    1
    15    20    22    2
    16    20    23    2
    17     4     5   ar
    18     5     6    1
    19     5     7   ar
    20     7     1    1
    21     1    24    1
    22    24    25   am
    23    25    26    2
    24    27    25    1
    25    27    28    1
    26    28    29    1
    27    29    30    1
    28    30    31    1
    29    32    31    1
    30    32    33    1
    31    33    34    1
    32    34    35    1
    33    35    36   ar
    34    36    37   ar
    35    37    38    1
    36    37    39   ar
    37    39    40    1
    38    39    41   ar
    39    41    42   ar
    40    24    44    1
    41    44    45    1
    42    45    46    1
    43     7     8   ar
    44     8     2   ar
    45    32    27    1
    46    42    35   ar
    47    46    44    1
    48    42    32    1
    49    18    19    1
    50    29    43    1
@<TRIPOS>MOLECULE
*****
 46 50 0 0 0
SMALL
GASTEIGER

@<TRIPOS>ATOM
      1 C          64.1582   83.7305   15.3668 C.3     1  UNL1        0.1209
      2 C          61.7817   80.9359   13.8528 C.ar    1  UNL1       -0.0226
      3 C          62.2990   80.8548   12.4473 C.ar    1  UNL1       -0.0077
      4 C          63.4361   81.7323   12.0148 C.ar    1  UNL1       -0.0122
      5 C          64.0559   82.6909   12.9879 C.ar    1  UNL1        0.0513
      6 CL         65.1929   83.5684   12.5555 Cl      1  UNL1       -0.0828
      7 C          63.5385   82.7719   14.3936 C.ar    1  UNL1        0.0076
      8 C          62.4014   81.8945   14.8260 C.ar    1  UNL1       -0.0061
      9 C          60.6445   80.0584   14.2853 C.3     1  UNL1        0.0289
     10 C          59.2404   80.5856   14.2642 C.3     1  UNL1        0.0367
     11 C          58.1068   79.7189   14.7268 C.3     1  UNL1        0.1426
     12 C          56.7006   80.2887   16.8357 C.3     1  UNL1        0.1741
     13 O          57.8393   79.5534   16.1934 O.3     1  UNL1       -0.3511
     14 C          63.9534   81.6513   10.6092 C.3     1  UNL1        0.0272
     15 C          64.2549   82.9077    9.8473 C.3     1  UNL1        0.0062
     16 C          63.1688   83.9116    9.5966 C.3     1  UNL1        0.0192
     17 C          63.3503   84.9660    8.5452 C.3     1  UNL1        0.0911
     18 N          62.1697   85.4493    7.7562 N.3     1  UNL1       -0.1833
     19 H          62.3820   86.4029    7.4630 H       1  UNL1        0.1484
     20 S          61.7329   84.7059    6.5287 S.O2    1  UNL1        0.0426
     21 C          61.2960   83.9627    5.3012 C.3     1  UNL1        0.1957
     22 O          60.3000   85.0005    6.8603 O.2     1  UNL1       -0.1575
     23 O          63.1658   84.4114    6.1970 O.2     1  UNL1       -0.1575
     24 N          63.8092   85.1881   15.3093 N.am    1  UNL1       -0.2769
     25 C          64.5108   86.0896   14.3372 C.2     1  UNL1        0.2294
     26 O          65.5614   85.5334   13.4224 O.2     1  UNL1       -0.2747
     27 C          64.1616   87.5474   14.2797 C.3     1  UNL1        0.1211
     28 C          64.7385   88.4970   15.2874 C.3     1  UNL1        0.0804
     29 N          64.3893   89.9546   15.2300 N.3     1  UNL1       -0.2969
     30 C          63.4634   90.4626   14.1648 C.3     1  UNL1        0.0714
     31 C          62.8866   89.5130   13.1571 C.3     1  UNL1        0.0490
     32 C          63.2357   88.0554   13.2146 C.3     1  UNL1        0.1224
     33 O          63.4922   86.5790   13.1466 O.3     1  UNL1       -0.3492
     34 C          62.7161   86.0265   11.9880 C.3     1  UNL1        0.1687
     35 C          61.9799   87.1614   11.3398 C.ar    1  UNL1        0.0079
     36 C          61.0587   87.2151   10.1573 C.ar    1  UNL1        0.0299
     37 C          60.4585   88.5227    9.7328 C.ar    1  UNL1        0.1671
     38 F          59.5373   88.5764    8.5503 F       1  UNL1       -0.2018
     39 C          60.7796   89.7765   10.4909 C.ar    1  UNL1        0.1671
     40 F          60.1795   91.0841   10.0665 F       1  UNL1       -0.2018
     41 C          61.7009   89.7229   11.6735 C.ar    1  UNL1        0.0297
     42 C          62.3011   88.4154   12.0979 C.ar    1  UNL1        0.0033
     43 H          65.2669   90.4636   15.1245 H       1  UNL1        0.1233
     44 C          62.7585   85.7444   16.2241 C.3     1  UNL1        0.0758
     45 C          61.3150   86.0053   16.5377 C.3     1  UNL1        0.0215
     46 C          62.3822   86.4470   17.4948 C.3     1  UNL1        0.0215
@<TRIPOS>BOND
     1    12    13    1
     2    13    11    1
     3    11    10    1
     4    10     9    1
     5     9     2    1
     6     2     3   ar
     7     3     4   ar
     8     4    14    1
     9    14    15    1
    10    15    16    1
    11    16    17    1
    12    17    18    1
    13    18    20    1
    14    20    21    1
    15    20    22    2
    16    20    23    2
    17     4     5   ar
    18     5     6    1
    19     5     7   ar
    20     7     1    1
    21     1    24    1
    22    24    25   am
    23    25    26    2
    24    27    25    1
    25    27    28    1
    26    28    29    1
    27    29    30    1
    28    30    31    1
    29    32    31    1
    30    32    33    1
    31    33    34    1
    32    34    35    1
    33    35    36   ar
    34    36    37   ar
    35    37    38    1
    36    37    39   ar
    37    39    40    1
    38    39    41   ar
    39    41    42   ar
    40    24    44    1
    41    44    45    1
    42    45    46    1
    43     7     8   ar
    44     8     2   ar
    45    32    27    1
    46    42    35   ar
    47    46    44    1
    48    42    32    1
    49    18    19    1
    50    29    43    1
