@<TRIPOS>MOLECULE
*****
 26 28 0 0 0
SMALL
GASTEIGER

@<TRIPOS>ATOM
      1 C          63.9344   89.3209   13.7307 C.ar    1  UNL1        0.0888
      2 C          63.2977   89.6223   12.4065 C.ar    1  UNL1        0.0538
      3 C          62.7580   88.5060   11.5623 C.ar    1  UNL1        0.1388
      4 N          62.8550   87.0882   12.0424 N.ar    1  UNL1       -0.1948
      5 C          63.4917   86.7868   13.3668 C.ar    1  UNL1        0.2539
      6 N          64.0314   87.9031   14.2109 N.ar    1  UNL1       -0.2098
      7 N          63.5887   85.3690   13.8469 N.ar    1  UNL1       -0.2008
      8 N          63.6952   84.1498   12.9797 N.ar    1  UNL1       -0.1673
      9 C          63.7686   82.9488   13.8754 C.ar    1  UNL1        0.0806
     10 C          63.8830   81.5215   13.4287 C.3     1  UNL1        0.0540
     11 C          63.7074   83.4258   15.2963 C.ar    1  UNL1        0.0313
     12 C          63.5962   84.9216   15.2786 C.ar    1  UNL1        0.0651
     13 C          63.5080   85.8133   16.4815 C.3     1  UNL1        0.0523
     14 C          66.2865   92.2432   15.0259 C.ar    1  UNL1        0.1579
     15 C          65.5536   92.6698   16.2631 C.ar    1  UNL1        0.1356
     16 N          64.2809   91.9800   16.6562 N.ar    1  UNL1       -0.2391
     17 C          63.7411   90.8638   15.8121 C.ar    1  UNL1        0.1006
     18 C          64.4741   90.4372   14.5749 C.ar    1  UNL1        0.0400
     19 C          65.7468   91.1269   14.1818 C.ar    1  UNL1        0.0416
     20 C          68.4724   93.4810   15.6890 C.3     1  UNL1        0.2525
     21 O          67.5592   92.9329   14.6328 O.3     1  UNL1       -0.4699
     22 N          62.1213   88.8074   10.2380 N.am    1  UNL1       -0.2692
     23 C          60.6365   88.6744   10.0721 C.2     1  UNL1        0.2277
     24 C          59.9998   88.9759    8.7478 C.3     1  UNL1        0.0950
     25 O          59.7883   88.2399   11.2304 O.2     1  UNL1       -0.2747
     26 H          62.6780   89.0926    9.4777 H       1  UNL1        0.1563
@<TRIPOS>BOND
     1    20    21    1
     2    21    14    1
     3    14    15   ar
     4    15    16   ar
     5    16    17   ar
     6    17    18   ar
     7    18     1    1
     8     1     2   ar
     9     2     3   ar
    10     3    22    1
    11    22    23   am
    12    23    24    1
    13    23    25    2
    14     3     4   ar
    15     4     5   ar
    16     5     7    1
    17     7     8   ar
    18     8     9   ar
    19     9    10    1
    20     9    11   ar
    21    11    12   ar
    22    12    13    1
    23     5     6   ar
    24    18    19   ar
    25    19    14   ar
    26     6     1   ar
    27    12     7   ar
    28    22    26    1
@<TRIPOS>MOLECULE
*****
 26 28 0 0 0
SMALL
GASTEIGER

@<TRIPOS>ATOM
      1 C          63.9331   89.0063   13.9811 C.ar    1  UNL1        0.0888
      2 C          64.3499   87.6324   14.4152 C.ar    1  UNL1        0.0538
      3 C          63.8863   86.4302   13.6470 C.ar    1  UNL1        0.1388
      4 N          63.0060   86.6022   12.4447 N.ar    1  UNL1       -0.1948
      5 C          62.5892   87.9763   12.0107 C.ar    1  UNL1        0.2539
      6 N          63.0527   89.1783   12.7789 N.ar    1  UNL1       -0.2098
      7 N          61.7088   88.1482   10.8084 N.ar    1  UNL1       -0.2008
      8 N          60.7744   87.1187   10.2454 N.ar    1  UNL1       -0.1673
      9 C          60.0964   87.7140    9.0471 C.ar    1  UNL1        0.0806
     10 C          59.0812   87.0317    8.1788 C.3     1  UNL1        0.0540
     11 C          60.6117   89.1115    8.8696 C.ar    1  UNL1        0.0313
     12 C          61.6082   89.3798    9.9582 C.ar    1  UNL1        0.0651
     13 C          62.3703   90.6558   10.1609 C.3     1  UNL1        0.0523
     14 C          66.1189   92.1193   15.1133 C.ar    1  UNL1        0.1579
     15 C          65.3238   92.6126   16.2857 C.ar    1  UNL1        0.1356
     16 N          64.0652   91.9038   16.6899 N.ar    1  UNL1       -0.2391
     17 C          63.6016   90.7017   15.9217 C.ar    1  UNL1        0.1006
     18 C          64.3966   90.2085   14.7494 C.ar    1  UNL1        0.0400
     19 C          65.6553   90.9173   14.3451 C.ar    1  UNL1        0.0416
     20 C          68.2341   93.4874   15.7490 C.3     1  UNL1        0.2525
     21 O          67.3775   92.8282   14.7090 O.3     1  UNL1       -0.4699
     22 N          64.3031   85.0563   14.0810 N.am    1  UNL1       -0.2692
     23 C          63.3173   84.1533   14.7612 C.2     1  UNL1        0.2277
     24 C          63.7341   82.7793   15.1953 C.3     1  UNL1        0.0950
     25 O          61.9146   84.6243   15.0074 O.2     1  UNL1       -0.2747
     26 H          65.2238   84.7471   13.9194 H       1  UNL1        0.1563
@<TRIPOS>BOND
     1    20    21    1
     2    21    14    1
     3    14    15   ar
     4    15    16   ar
     5    16    17   ar
     6    17    18   ar
     7    18     1    1
     8     1     2   ar
     9     2     3   ar
    10     3    22    1
    11    22    23   am
    12    23    24    1
    13    23    25    2
    14     3     4   ar
    15     4     5   ar
    16     5     7    1
    17     7     8   ar
    18     8     9   ar
    19     9    10    1
    20     9    11   ar
    21    11    12   ar
    22    12    13    1
    23     5     6   ar
    24    18    19   ar
    25    19    14   ar
    26     6     1   ar
    27    12     7   ar
    28    22    26    1
@<TRIPOS>MOLECULE
*****
 26 28 0 0 0
SMALL
GASTEIGER

@<TRIPOS>ATOM
      1 C          63.9297   91.1538   11.8143 C.ar    1  UNL1        0.0888
      2 C          64.4716   91.1656   13.2130 C.ar    1  UNL1        0.0538
      3 C          65.6537   92.0244   13.5522 C.ar    1  UNL1        0.1388
      4 N          66.2940   92.8715   12.4927 N.ar    1  UNL1       -0.1948
      5 C          65.7521   92.8598   11.0940 C.ar    1  UNL1        0.2539
      6 N          64.5700   92.0009   10.7548 N.ar    1  UNL1       -0.2098
      7 N          66.3923   93.7069   10.0345 N.ar    1  UNL1       -0.2008
      8 N          65.9360   95.0676    9.5984 N.ar    1  UNL1       -0.1673
      9 C          66.8630   95.5437    8.5194 C.ar    1  UNL1        0.0806
     10 C          66.7759   96.8558    7.7979 C.3     1  UNL1        0.0540
     11 C          67.8922   94.4772    8.2888 C.ar    1  UNL1        0.0313
     12 C          67.6014   93.3420    9.2251 C.ar    1  UNL1        0.0651
     13 C          68.3824   92.0659    9.3331 C.3     1  UNL1        0.0523
     14 C          61.6003   87.9645   11.4242 C.ar    1  UNL1        0.1579
     15 C          60.3835   88.5773   10.7967 C.ar    1  UNL1        0.1356
     16 N          60.3488   90.0489   10.5083 N.ar    1  UNL1       -0.2391
     17 C          61.5308   90.9078   10.8475 C.ar    1  UNL1        0.1006
     18 C          62.7476   90.2950   11.4751 C.ar    1  UNL1        0.0400
     19 C          62.7824   88.8234   11.7634 C.ar    1  UNL1        0.0416
     20 C          62.0291   85.5266   10.6351 C.3     1  UNL1        0.2525
     21 O          61.6351   86.4929   11.7126 O.3     1  UNL1       -0.4699
     22 N          66.1955   92.0362   14.9508 N.am    1  UNL1       -0.2692
     23 C          67.6657   92.2206   15.1841 C.2     1  UNL1        0.2277
     24 C          68.2075   92.2324   16.5827 C.3     1  UNL1        0.0950
     25 O          68.5942   92.3933   14.0187 O.2     1  UNL1       -0.2747
     26 H          65.5862   91.9228   15.7157 H       1  UNL1        0.1563
@<TRIPOS>BOND
     1    20    21    1
     2    21    14    1
     3    14    15   ar
     4    15    16   ar
     5    16    17   ar
     6    17    18   ar
     7    18     1    1
     8     1     2   ar
     9     2     3   ar
    10     3    22    1
    11    22    23   am
    12    23    24    1
    13    23    25    2
    14     3     4   ar
    15     4     5   ar
    16     5     7    1
    17     7     8   ar
    18     8     9   ar
    19     9    10    1
    20     9    11   ar
    21    11    12   ar
    22    12    13    1
    23     5     6   ar
    24    18    19   ar
    25    19    14   ar
    26     6     1   ar
    27    12     7   ar
    28    22    26    1
@<TRIPOS>MOLECULE
*****
 26 28 0 0 0
SMALL
GASTEIGER

@<TRIPOS>ATOM
      1 C          63.2638   89.7149   12.2073 C.ar    1  UNL1        0.0888
      2 C          62.3938   90.2222   11.0958 C.ar    1  UNL1        0.0538
      3 C          61.5959   89.2585   10.2683 C.ar    1  UNL1        0.1388
      4 N          61.6680   87.7874   10.5525 N.ar    1  UNL1       -0.1948
      5 C          62.5381   87.2801   11.6642 C.ar    1  UNL1        0.2539
      6 N          63.3359   88.2438   12.4916 N.ar    1  UNL1       -0.2098
      7 N          62.6102   85.8090   11.9484 N.ar    1  UNL1       -0.2008
      8 N          62.4835   85.1643   13.2968 N.ar    1  UNL1       -0.1673
      9 C          62.6166   83.6812   13.1159 C.ar    1  UNL1        0.0806
     10 C          62.5521   82.6509   14.2042 C.3     1  UNL1        0.0540
     11 C          62.8257   83.4093   11.6556 C.ar    1  UNL1        0.0313
     12 C          62.8217   84.7244   10.9341 C.ar    1  UNL1        0.0651
     13 C          62.9982   84.9204    9.4575 C.3     1  UNL1        0.0523
     14 C          65.7534   92.6441   13.1931 C.ar    1  UNL1        0.1579
     15 C          65.6576   92.6060   14.6895 C.ar    1  UNL1        0.1356
     16 N          64.7638   91.6042   15.3586 N.ar    1  UNL1       -0.2391
     17 C          63.9659   90.6405   14.5312 C.ar    1  UNL1        0.1006
     18 C          64.0618   90.6786   13.0348 C.ar    1  UNL1        0.0400
     19 C          64.9555   91.6804   12.3657 C.ar    1  UNL1        0.0416
     20 C          66.2535   94.2380   11.2033 C.3     1  UNL1        0.2525
     21 O          66.6471   93.6459   12.5240 O.3     1  UNL1       -0.4699
     22 N          60.7259   89.7658    9.1567 N.am    1  UNL1       -0.2692
     23 C          60.0946   88.8002    8.1980 C.2     1  UNL1        0.2277
     24 C          59.2246   89.3076    7.0865 C.3     1  UNL1        0.0950
     25 O          60.3333   87.3273    8.3509 O.2     1  UNL1       -0.2747
     26 H          60.5692   90.7326    9.0564 H       1  UNL1        0.1563
@<TRIPOS>BOND
     1    20    21    1
     2    21    14    1
     3    14    15   ar
     4    15    16   ar
     5    16    17   ar
     6    17    18   ar
     7    18     1    1
     8     1     2   ar
     9     2     3   ar
    10     3    22    1
    11    22    23   am
    12    23    24    1
    13    23    25    2
    14     3     4   ar
    15     4     5   ar
    16     5     7    1
    17     7     8   ar
    18     8     9   ar
    19     9    10    1
    20     9    11   ar
    21    11    12   ar
    22    12    13    1
    23     5     6   ar
    24    18    19   ar
    25    19    14   ar
    26     6     1   ar
    27    12     7   ar
    28    22    26    1
@<TRIPOS>MOLECULE
*****
 26 28 0 0 0
SMALL
GASTEIGER

@<TRIPOS>ATOM
      1 C          63.0445   88.7046   12.1364 C.ar    1  UNL1        0.0888
      2 C          61.8898   88.7094   11.1791 C.ar    1  UNL1        0.0538
      3 C          61.1362   87.4414   10.9064 C.ar    1  UNL1        0.1388
      4 N          61.5375   86.1685   11.5911 N.ar    1  UNL1       -0.1948
      5 C          62.6923   86.1637   12.5485 C.ar    1  UNL1        0.2539
      6 N          63.4458   87.4317   12.8211 N.ar    1  UNL1       -0.2098
      7 N          63.0935   84.8909   13.2332 N.ar    1  UNL1       -0.2008
      8 N          62.8988   83.5029   12.6987 N.ar    1  UNL1       -0.1673
      9 C          63.4449   82.5367   13.7078 C.ar    1  UNL1        0.0806
     10 C          63.4567   81.0421   13.5809 C.3     1  UNL1        0.0540
     11 C          63.9771   83.3275   14.8660 C.ar    1  UNL1        0.0313
     12 C          63.7599   84.7824   14.5727 C.ar    1  UNL1        0.0651
     13 C          64.1421   85.9278   15.4626 C.3     1  UNL1        0.0523
     14 C          65.2481   91.4312   13.9964 C.ar    1  UNL1        0.1579
     15 C          65.3052   92.5085   12.9543 C.ar    1  UNL1        0.1356
     16 N          64.6088   92.3179   11.6396 N.ar    1  UNL1       -0.2391
     17 C          63.8552   91.0500   11.3669 C.ar    1  UNL1        0.1006
     18 C          63.7981   89.9726   12.4090 C.ar    1  UNL1        0.0400
     19 C          64.4946   90.1632   13.7238 C.ar    1  UNL1        0.0416
     20 C          67.4153   91.9147   15.3453 C.3     1  UNL1        0.2525
     21 O          65.9446   91.6218   15.3112 O.3     1  UNL1       -0.4699
     22 N          59.9815   87.4463    9.9491 N.am    1  UNL1       -0.2692
     23 C          60.1050   86.7593    8.6214 C.2     1  UNL1        0.2277
     24 C          58.9503   86.7642    7.6641 C.3     1  UNL1        0.0950
     25 O          61.3833   86.0675    8.2510 O.2     1  UNL1       -0.2747
     26 H          59.1424   87.9003   10.1922 H       1  UNL1        0.1563
@<TRIPOS>BOND
     1    20    21    1
     2    21    14    1
     3    14    15   ar
     4    15    16   ar
     5    16    17   ar
     6    17    18   ar
     7    18     1    1
     8     1     2   ar
     9     2     3   ar
    10     3    22    1
    11    22    23   am
    12    23    24    1
    13    23    25    2
    14     3     4   ar
    15     4     5   ar
    16     5     7    1
    17     7     8   ar
    18     8     9   ar
    19     9    10    1
    20     9    11   ar
    21    11    12   ar
    22    12    13    1
    23     5     6   ar
    24    18    19   ar
    25    19    14   ar
    26     6     1   ar
    27    12     7   ar
    28    22    26    1
@<TRIPOS>MOLECULE
*****
 26 28 0 0 0
SMALL
GASTEIGER

@<TRIPOS>ATOM
      1 C          63.0968   88.8021   12.1675 C.ar    1  UNL1        0.0888
      2 C          61.9582   88.8323   11.1916 C.ar    1  UNL1        0.0538
      3 C          61.2076   87.5726   10.8755 C.ar    1  UNL1        0.1388
      4 N          61.5958   86.2827   11.5354 N.ar    1  UNL1       -0.1948
      5 C          62.7345   86.2525   12.5114 C.ar    1  UNL1        0.2539
      6 N          63.4850   87.5122   12.8274 N.ar    1  UNL1       -0.2098
      7 N          63.1227   84.9626   13.1713 N.ar    1  UNL1       -0.2008
      8 N          62.8764   83.5859   12.6293 N.ar    1  UNL1       -0.1673
      9 C          63.4268   82.5953   13.6121 C.ar    1  UNL1        0.0806
     10 C          63.3961   81.1024   13.4703 C.3     1  UNL1        0.0540
     11 C          64.0133   83.3600   14.7616 C.ar    1  UNL1        0.0313
     12 C          63.8253   84.8230   14.4892 C.ar    1  UNL1        0.0651
     13 C          64.2631   85.9488   15.3786 C.3     1  UNL1        0.0523
     14 C          64.8712   92.3233   11.7171 C.ar    1  UNL1        0.1579
     15 C          65.3484   92.5812   13.1155 C.ar    1  UNL1        0.1356
     16 N          65.0751   91.5794   14.1980 N.ar    1  UNL1       -0.2391
     17 C          64.3246   90.3197   13.8820 C.ar    1  UNL1        0.1006
     18 C          63.8474   90.0618   12.4835 C.ar    1  UNL1        0.0400
     19 C          64.1207   91.0636   11.4011 C.ar    1  UNL1        0.0416
     20 C          65.9256   94.5680   10.9428 C.3     1  UNL1        0.2525
     21 O          65.1445   93.3251   10.6346 O.3     1  UNL1       -0.4699
     22 N          60.0689   87.6028    9.8996 N.am    1  UNL1       -0.2692
     23 C          60.1599   86.8307    8.6168 C.2     1  UNL1        0.2277
     24 C          59.0213   86.8609    7.6408 C.3     1  UNL1        0.0950
     25 O          61.3896   86.0284    8.3099 O.2     1  UNL1       -0.2747
     26 H          59.2618   88.1293   10.1010 H       1  UNL1        0.1563
@<TRIPOS>BOND
     1    20    21    1
     2    21    14    1
     3    14    15   ar
     4    15    16   ar
     5    16    17   ar
     6    17    18   ar
     7    18     1    1
     8     1     2   ar
     9     2     3   ar
    10     3    22    1
    11    22    23   am
    12    23    24    1
    13    23    25    2
    14     3     4   ar
    15     4     5   ar
    16     5     7    1
    17     7     8   ar
    18     8     9   ar
    19     9    10    1
    20     9    11   ar
    21    11    12   ar
    22    12    13    1
    23     5     6   ar
    24    18    19   ar
    25    19    14   ar
    26     6     1   ar
    27    12     7   ar
    28    22    26    1
@<TRIPOS>MOLECULE
*****
 26 28 0 0 0
SMALL
GASTEIGER

@<TRIPOS>ATOM
      1 C          62.6037   85.9786   12.2919 C.ar    1  UNL1        0.0888
      2 C          61.4833   86.0960   11.3016 C.ar    1  UNL1        0.0538
      3 C          61.1094   87.4390   10.7478 C.ar    1  UNL1        0.1388
      4 N          61.8559   88.6646   11.1845 N.ar    1  UNL1       -0.1948
      5 C          62.9763   88.5471   12.1749 C.ar    1  UNL1        0.2539
      6 N          63.3502   87.2042   12.7286 N.ar    1  UNL1       -0.2098
      7 N          63.7228   89.7727   12.6115 N.ar    1  UNL1       -0.2008
      8 N          64.4276   89.9553   13.9230 N.ar    1  UNL1       -0.1673
      9 C          65.0360   91.3263   13.9354 C.ar    1  UNL1        0.0806
     10 C          65.8332   91.9271   15.0551 C.3     1  UNL1        0.0540
     11 C          64.7072   91.9911   12.6316 C.ar    1  UNL1        0.0313
     12 C          63.8957   91.0309   11.8134 C.ar    1  UNL1        0.0651
     13 C          63.3523   91.2845   10.4385 C.3     1  UNL1        0.0523
     14 C          63.0832   82.0512   12.6014 C.ar    1  UNL1        0.1579
     15 C          63.7255   81.9497   13.9531 C.ar    1  UNL1        0.1356
     16 N          63.9938   83.1911   14.7511 N.ar    1  UNL1       -0.2391
     17 C          63.6199   84.5341   14.1974 C.ar    1  UNL1        0.1006
     18 C          62.9776   84.6356   12.8457 C.ar    1  UNL1        0.0400
     19 C          62.7093   83.3942   12.0477 C.ar    1  UNL1        0.0416
     20 C          63.2158   80.7450   10.3595 C.3     1  UNL1        0.2525
     21 O          62.8148   80.8098   11.8034 O.3     1  UNL1       -0.4699
     22 N          59.9890   87.5563    9.7574 N.am    1  UNL1       -0.2692
     23 C          60.0734   86.8418    8.4412 C.2     1  UNL1        0.2277
     24 C          58.9530   86.9592    7.4509 C.3     1  UNL1        0.0950
     25 O          61.2783   86.0100    8.1154 O.2     1  UNL1       -0.2747
     26 H          59.1981   88.1023    9.9713 H       1  UNL1        0.1563
@<TRIPOS>BOND
     1    20    21    1
     2    21    14    1
     3    14    15   ar
     4    15    16   ar
     5    16    17   ar
     6    17    18   ar
     7    18     1    1
     8     1     2   ar
     9     2     3   ar
    10     3    22    1
    11    22    23   am
    12    23    24    1
    13    23    25    2
    14     3     4   ar
    15     4     5   ar
    16     5     7    1
    17     7     8   ar
    18     8     9   ar
    19     9    10    1
    20     9    11   ar
    21    11    12   ar
    22    12    13    1
    23     5     6   ar
    24    18    19   ar
    25    19    14   ar
    26     6     1   ar
    27    12     7   ar
    28    22    26    1
@<TRIPOS>MOLECULE
*****
 26 28 0 0 0
SMALL
GASTEIGER

@<TRIPOS>ATOM
      1 C          64.2572   90.5686   12.5822 C.ar    1  UNL1        0.0888
      2 C          64.3817   89.7543   13.8358 C.ar    1  UNL1        0.0538
      3 C          63.6559   88.4471   13.9562 C.ar    1  UNL1        0.1388
      4 N          62.8057   87.9542   12.8230 N.ar    1  UNL1       -0.1948
      5 C          62.6812   88.7685   11.5694 C.ar    1  UNL1        0.2539
      6 N          63.4070   90.0757   11.4491 N.ar    1  UNL1       -0.2098
      7 N          61.8309   88.2757   10.4362 N.ar    1  UNL1       -0.2008
      8 N          62.0626   87.0266    9.6386 N.ar    1  UNL1       -0.1673
      9 C          60.9745   86.9243    8.6111 C.ar    1  UNL1        0.0806
     10 C          60.8181   85.8286    7.5987 C.3     1  UNL1        0.0540
     11 C          60.0704   88.1101    8.7737 C.ar    1  UNL1        0.0313
     12 C          60.5997   88.9452    9.9017 C.ar    1  UNL1        0.0651
     13 C          60.0025   90.2253   10.4066 C.3     1  UNL1        0.0523
     14 C          66.5054   93.7079   13.4991 C.ar    1  UNL1        0.1579
     15 C          66.4346   94.4901   12.2211 C.ar    1  UNL1        0.1356
     16 N          65.6381   93.9652   11.0636 N.ar    1  UNL1       -0.2391
     17 C          64.9123   92.6580   11.1839 C.ar    1  UNL1        0.1006
     18 C          64.9830   91.8758   12.4618 C.ar    1  UNL1        0.0400
     19 C          65.7796   92.4008   13.6194 C.ar    1  UNL1        0.0416
     20 C          67.6757   93.3190   15.7857 C.3     1  UNL1        0.2525
     21 O          67.3019   94.2329   14.6566 O.3     1  UNL1       -0.4699
     22 N          63.7804   87.6328   15.2097 N.am    1  UNL1       -0.2692
     23 C          62.9577   87.9805   16.4148 C.2     1  UNL1        0.2277
     24 C          63.0821   87.1662   17.6683 C.3     1  UNL1        0.0950
     25 O          62.0104   89.1425   16.3663 O.2     1  UNL1       -0.2747
     26 H          64.4022   86.8701   15.2416 H       1  UNL1        0.1563
@<TRIPOS>BOND
     1    20    21    1
     2    21    14    1
     3    14    15   ar
     4    15    16   ar
     5    16    17   ar
     6    17    18   ar
     7    18     1    1
     8     1     2   ar
     9     2     3   ar
    10     3    22    1
    11    22    23   am
    12    23    24    1
    13    23    25    2
    14     3     4   ar
    15     4     5   ar
    16     5     7    1
    17     7     8   ar
    18     8     9   ar
    19     9    10    1
    20     9    11   ar
    21    11    12   ar
    22    12    13    1
    23     5     6   ar
    24    18    19   ar
    25    19    14   ar
    26     6     1   ar
    27    12     7   ar
    28    22    26    1
@<TRIPOS>MOLECULE
*****
 26 28 0 0 0
SMALL
GASTEIGER

@<TRIPOS>ATOM
      1 C          63.2346   85.7712   13.0325 C.ar    1  UNL1        0.0888
      2 C          63.9287   86.8540   13.8042 C.ar    1  UNL1        0.0538
      3 C          63.7621   88.2886   13.3989 C.ar    1  UNL1        0.1388
      4 N          62.9013   88.6403   12.2219 N.ar    1  UNL1       -0.1948
      5 C          62.2072   87.5573   11.4501 C.ar    1  UNL1        0.2539
      6 N          62.3738   86.1228   11.8554 N.ar    1  UNL1       -0.2098
      7 N          61.3464   87.9090   10.2731 N.ar    1  UNL1       -0.2008
      8 N          60.4885   86.9578    9.4927 N.ar    1  UNL1       -0.1673
      9 C          59.8042   87.7345    8.4071 C.ar    1  UNL1        0.0806
     10 C          58.8521   87.1777    7.3905 C.3     1  UNL1        0.0540
     11 C          60.2393   89.1658    8.5166 C.ar    1  UNL1        0.0313
     12 C          61.1924   89.2737    9.6698 C.ar    1  UNL1        0.0651
     13 C          61.8721   90.5263   10.1377 C.3     1  UNL1        0.0523
     14 C          63.2356   81.8056   12.8747 C.ar    1  UNL1        0.1579
     15 C          63.7345   81.4674   14.2482 C.ar    1  UNL1        0.1356
     16 N          64.0669   82.5638   15.2165 N.ar    1  UNL1       -0.2391
     17 C          63.9003   83.9983   14.8113 C.ar    1  UNL1        0.1006
     18 C          63.4013   84.3365   13.4377 C.ar    1  UNL1        0.0400
     19 C          63.0689   83.2402   12.4695 C.ar    1  UNL1        0.0416
     20 C          63.1651   80.8976   10.4415 C.3     1  UNL1        0.2525
     21 O          62.9032   80.7093   11.9064 O.3     1  UNL1       -0.4699
     22 N          64.4562   89.3715   14.1706 N.am    1  UNL1       -0.2692
     23 C          63.7217   90.1137   15.2475 C.2     1  UNL1        0.2277
     24 C          64.4159   91.1965   16.0192 C.3     1  UNL1        0.0950
     25 O          62.2932   89.7731   15.5527 O.2     1  UNL1       -0.2747
     26 H          65.3938   89.5951   13.9703 H       1  UNL1        0.1563
@<TRIPOS>BOND
     1    20    21    1
     2    21    14    1
     3    14    15   ar
     4    15    16   ar
     5    16    17   ar
     6    17    18   ar
     7    18     1    1
     8     1     2   ar
     9     2     3   ar
    10     3    22    1
    11    22    23   am
    12    23    24    1
    13    23    25    2
    14     3     4   ar
    15     4     5   ar
    16     5     7    1
    17     7     8   ar
    18     8     9   ar
    19     9    10    1
    20     9    11   ar
    21    11    12   ar
    22    12    13    1
    23     5     6   ar
    24    18    19   ar
    25    19    14   ar
    26     6     1   ar
    27    12     7   ar
    28    22    26    1
