@<TRIPOS>MOLECULE
*****
 37 41 0 0 0
SMALL
GASTEIGER

@<TRIPOS>ATOM
      1 C          61.9171   88.4608   10.9258 C.3     1  UNL1        0.0933
      2 C          61.9701   89.6158    9.9701 C.3     1  UNL1        0.0442
      3 C          61.0761   89.6342    8.7657 C.3     1  UNL1        0.0953
      4 N          60.1292   88.4977    8.5171 N.am    1  UNL1       -0.2794
      5 C          59.2352   88.5162    7.3127 C.2     1  UNL1        0.2252
      6 O          58.2883   87.3797    7.0640 O.2     1  UNL1       -0.2749
      7 C          60.0763   87.3429    9.4728 C.3     1  UNL1        0.0953
      8 C          60.9703   87.3244   10.6771 C.3     1  UNL1        0.0442
      9 N          64.2119   89.1635   13.9763 N.ar    1  UNL1       -0.2799
     10 C          63.3772   89.6443   12.8265 C.ar    1  UNL1        0.3315
     11 O          63.1487   91.0757   12.4407 O.2     1  UNL1       -0.2463
     12 N          62.8111   88.4424   12.1302 N.ar    1  UNL1       -0.2817
     13 C          63.2959   87.2187   12.8497 C.ar    1  UNL1        0.0796
     14 C          63.0609   85.7563   12.6133 C.ar    1  UNL1        0.0188
     15 C          63.6916   84.7395   13.5179 C.ar    1  UNL1        0.0016
     16 C          64.5573   85.1852   14.6589 C.ar    1  UNL1        0.0016
     17 C          64.7923   86.6476   14.8953 C.ar    1  UNL1        0.0188
     18 C          64.1616   87.6644   13.9907 C.ar    1  UNL1        0.0797
     19 C          64.9647   90.0297   14.9423 C.3     1  UNL1        0.1120
     20 C          65.7019   91.2388   14.4481 C.3     1  UNL1        0.0419
     21 C          67.0427   91.5870   15.0237 C.3     1  UNL1        0.0742
     22 C          66.7998   94.0271   14.1654 C.3     1  UNL1        0.0897
     23 N          67.5301   93.0050   14.9852 N.3     1  UNL1       -0.2703
     24 C          68.7477   93.4011   15.7666 C.3     1  UNL1        0.0897
     25 C          59.2882   89.6711    6.3570 C.3     1  UNL1        0.0795
     26 C          60.5941   90.0733    5.7383 C.3     1  UNL1        0.0264
     27 C          60.6470   91.2283    4.7826 C.3     1  UNL1        0.0729
     28 N          59.3941   91.9810    4.4457 N.3     1  UNL1       -0.2689
     29 C          58.0882   91.5788    5.0644 C.3     1  UNL1        0.0729
     30 C          58.0353   90.4238    6.0201 C.3     1  UNL1        0.0264
     31 C          59.4470   93.1359    3.4900 C.3     1  UNL1        0.0992
     32 C          60.1455   92.9866    2.1710 C.ar    1  UNL1       -0.0031
     33 C          59.3488   92.7410    0.9240 C.ar    1  UNL1        0.0178
     34 C          60.0473   92.5917   -0.3950 C.ar    1  UNL1        0.0986
     35 N          61.5425   92.6879   -0.4670 N.ar    1  UNL1       -0.2423
     36 C          62.3392   92.9335    0.7800 C.ar    1  UNL1        0.0986
     37 C          61.6407   93.0828    2.0990 C.ar    1  UNL1        0.0178
@<TRIPOS>BOND
     1    22    23    1
     2    23    24    1
     3    23    21    1
     4    21    20    1
     5    20    19    1
     6    19     9    1
     7     9    10   ar
     8    10    11    2
     9    10    12   ar
    10    12     1    1
    11     1     2    1
    12     2     3    1
    13     3     4    1
    14     4     5   am
    15     5     6    2
    16     5    25    1
    17    25    26    1
    18    26    27    1
    19    27    28    1
    20    28    31    1
    21    31    32    1
    22    32    33   ar
    23    33    34   ar
    24    34    35   ar
    25    35    36   ar
    26    36    37   ar
    27    28    29    1
    28    29    30    1
    29     4     7    1
    30     7     8    1
    31    12    13   ar
    32    13    14   ar
    33    14    15   ar
    34    15    16   ar
    35    16    17   ar
    36    17    18   ar
    37    18     9   ar
    38     8     1    1
    39    18    13   ar
    40    30    25    1
    41    37    32   ar
@<TRIPOS>MOLECULE
*****
 37 41 0 0 0
SMALL
GASTEIGER

@<TRIPOS>ATOM
      1 C          61.8601   88.2716   10.8711 C.3     1  UNL1        0.0933
      2 C          61.9743   89.4420    9.9397 C.3     1  UNL1        0.0442
      3 C          61.0824   89.5333    8.7371 C.3     1  UNL1        0.0953
      4 N          60.0764   88.4543    8.4658 N.am    1  UNL1       -0.2794
      5 C          59.1845   88.5455    7.2632 C.2     1  UNL1        0.2252
      6 O          58.1785   87.4665    6.9919 O.2     1  UNL1       -0.2749
      7 C          59.9622   87.2840    9.3971 C.3     1  UNL1        0.0953
      8 C          60.8541   87.1927   10.5998 C.3     1  UNL1        0.0442
      9 N          64.0090   87.2995   13.9537 N.ar    1  UNL1       -0.2799
     10 C          63.0894   86.9286   12.8281 C.ar    1  UNL1        0.3315
     11 O          62.5944   85.5483   12.5124 O.2     1  UNL1       -0.2463
     12 N          62.7520   88.1804   12.0737 N.ar    1  UNL1       -0.2817
     13 C          63.4629   89.3249   12.7330 C.ar    1  UNL1        0.0796
     14 C          63.5032   90.7924   12.4255 C.ar    1  UNL1        0.0188
     15 C          64.3204   91.7156   13.2798 C.ar    1  UNL1        0.0016
     16 C          65.0973   91.1711   14.4417 C.ar    1  UNL1        0.0016
     17 C          65.0570   89.7036   14.7493 C.ar    1  UNL1        0.0188
     18 C          64.2398   88.7805   13.8949 C.ar    1  UNL1        0.0797
     19 C          64.5949   86.3552   14.9612 C.3     1  UNL1        0.1120
     20 C          64.9923   84.9693   14.5477 C.3     1  UNL1        0.0419
     21 C          64.2392   83.7841   15.0753 C.3     1  UNL1        0.0742
     22 C          62.1867   82.3334   14.4177 C.3     1  UNL1        0.0897
     23 N          63.5686   82.8377   14.1243 N.3     1  UNL1       -0.2703
     24 C          64.2798   82.3954   12.8799 C.3     1  UNL1        0.0897
     25 C          59.2988   89.7159    6.3320 C.3     1  UNL1        0.0795
     26 C          58.0799   90.5162    5.9801 C.3     1  UNL1        0.0264
     27 C          58.1943   91.6866    5.0488 C.3     1  UNL1        0.0729
     28 N          59.5274   92.0566    4.4694 N.3     1  UNL1       -0.2689
     29 C          60.7463   91.2562    4.8212 C.3     1  UNL1        0.0729
     30 C          60.6320   90.0859    5.7525 C.3     1  UNL1        0.0264
     31 C          59.6417   93.2269    3.5381 C.3     1  UNL1        0.0992
     32 C          60.2370   93.0442    2.1735 C.ar    1  UNL1       -0.0031
     33 C          61.7178   93.1803    1.9768 C.ar    1  UNL1        0.0178
     34 C          62.3131   92.9977    0.6122 C.ar    1  UNL1        0.0986
     35 N          61.4276   92.6789   -0.5558 N.ar    1  UNL1       -0.2423
     36 C          59.9468   92.5428   -0.3591 C.ar    1  UNL1        0.0986
     37 C          59.3515   92.7254    1.0055 C.ar    1  UNL1        0.0178
@<TRIPOS>BOND
     1    22    23    1
     2    23    24    1
     3    23    21    1
     4    21    20    1
     5    20    19    1
     6    19     9    1
     7     9    10   ar
     8    10    11    2
     9    10    12   ar
    10    12     1    1
    11     1     2    1
    12     2     3    1
    13     3     4    1
    14     4     5   am
    15     5     6    2
    16     5    25    1
    17    25    26    1
    18    26    27    1
    19    27    28    1
    20    28    31    1
    21    31    32    1
    22    32    33   ar
    23    33    34   ar
    24    34    35   ar
    25    35    36   ar
    26    36    37   ar
    27    28    29    1
    28    29    30    1
    29     4     7    1
    30     7     8    1
    31    12    13   ar
    32    13    14   ar
    33    14    15   ar
    34    15    16   ar
    35    16    17   ar
    36    17    18   ar
    37    18     9   ar
    38     8     1    1
    39    18    13   ar
    40    30    25    1
    41    37    32   ar
@<TRIPOS>MOLECULE
*****
 37 41 0 0 0
SMALL
GASTEIGER

@<TRIPOS>ATOM
      1 C          60.7769   92.3582    3.2158 C.3     1  UNL1        0.0933
      2 C          61.4781   91.6007    4.3043 C.3     1  UNL1        0.0442
      3 C          60.6806   90.8502    5.3293 C.3     1  UNL1        0.0953
      4 N          59.1820   90.8571    5.2660 N.am    1  UNL1       -0.2794
      5 C          58.3845   90.1065    6.2910 C.2     1  UNL1        0.2252
      6 O          56.8859   90.1134    6.2276 O.2     1  UNL1       -0.2749
      7 C          58.4808   91.6145    4.1775 C.3     1  UNL1        0.0953
      8 C          59.2783   92.3650    3.1525 C.3     1  UNL1        0.0442
      9 N          63.3944   93.8265    0.7545 N.ar    1  UNL1       -0.2799
     10 C          63.0024   92.8425    1.8166 C.ar    1  UNL1        0.3315
     11 O          63.8836   91.7790    2.4018 O.2     1  UNL1       -0.2463
     12 N          61.5744   93.1087    2.1907 N.ar    1  UNL1       -0.2817
     13 C          61.0838   94.2572    1.3599 C.ar    1  UNL1        0.0796
     14 C          59.7583   94.9564    1.2970 C.ar    1  UNL1        0.0188
     15 C          59.5576   96.0992    0.3463 C.ar    1  UNL1        0.0016
     16 C          60.6824   96.5428   -0.5413 C.ar    1  UNL1        0.0016
     17 C          62.0079   95.8436   -0.4784 C.ar    1  UNL1        0.0188
     18 C          62.2087   94.7009    0.4722 C.ar    1  UNL1        0.0797
     19 C          64.7365   93.9198    0.0911 C.3     1  UNL1        0.1120
     20 C          65.4338   95.2441   -0.0078 C.3     1  UNL1        0.0419
     21 C          64.9677   96.2648   -1.0032 C.3     1  UNL1        0.0742
     22 C          66.1585   96.8556   -3.2355 C.3     1  UNL1        0.0897
     23 N          65.1688   96.0277   -2.4706 N.3     1  UNL1       -0.2703
     24 C          64.3801   94.9626   -3.1733 C.3     1  UNL1        0.0897
     25 C          59.0857   89.3492    7.3794 C.3     1  UNL1        0.0795
     26 C          59.0056   87.8520    7.4229 C.3     1  UNL1        0.0264
     27 C          59.7069   87.0946    8.5114 C.3     1  UNL1        0.0729
     28 N          60.4883   87.8345    9.5563 N.3     1  UNL1       -0.2689
     29 C          60.5684   89.3317    9.5129 C.3     1  UNL1        0.0729
     30 C          59.8672   90.0890    8.4244 C.3     1  UNL1        0.0264
     31 C          61.1895   87.0772   10.6447 C.3     1  UNL1        0.0992
     32 C          62.0587   85.9037   10.3019 C.ar    1  UNL1       -0.0031
     33 C          62.5832   85.7413    8.9060 C.ar    1  UNL1        0.0178
     34 C          63.4524   84.5679    8.5631 C.ar    1  UNL1        0.0986
     35 N          63.7970   83.5568    9.6162 N.ar    1  UNL1       -0.2423
     36 C          63.2725   83.7192   11.0121 C.ar    1  UNL1        0.0986
     37 C          62.4033   84.8926   11.3549 C.ar    1  UNL1        0.0178
@<TRIPOS>BOND
     1    22    23    1
     2    23    24    1
     3    23    21    1
     4    21    20    1
     5    20    19    1
     6    19     9    1
     7     9    10   ar
     8    10    11    2
     9    10    12   ar
    10    12     1    1
    11     1     2    1
    12     2     3    1
    13     3     4    1
    14     4     5   am
    15     5     6    2
    16     5    25    1
    17    25    26    1
    18    26    27    1
    19    27    28    1
    20    28    31    1
    21    31    32    1
    22    32    33   ar
    23    33    34   ar
    24    34    35   ar
    25    35    36   ar
    26    36    37   ar
    27    28    29    1
    28    29    30    1
    29     4     7    1
    30     7     8    1
    31    12    13   ar
    32    13    14   ar
    33    14    15   ar
    34    15    16   ar
    35    16    17   ar
    36    17    18   ar
    37    18     9   ar
    38     8     1    1
    39    18    13   ar
    40    30    25    1
    41    37    32   ar
@<TRIPOS>MOLECULE
*****
 37 41 0 0 0
SMALL
GASTEIGER

@<TRIPOS>ATOM
      1 C          61.1782   92.3652    2.6619 C.3     1  UNL1        0.0933
      2 C          61.8063   91.5618    3.7621 C.3     1  UNL1        0.0442
      3 C          60.9484   90.9621    4.8365 C.3     1  UNL1        0.0953
      4 N          59.4625   91.1656    4.8107 N.am    1  UNL1       -0.2794
      5 C          58.6046   90.5658    5.8851 C.2     1  UNL1        0.2252
      6 O          57.1187   90.7693    5.8594 O.2     1  UNL1       -0.2749
      7 C          58.8345   91.9689    3.7106 C.3     1  UNL1        0.0953
      8 C          59.6924   92.5686    2.6362 C.3     1  UNL1        0.0442
      9 N          62.9585   93.5236   -0.5868 N.ar    1  UNL1       -0.2799
     10 C          61.8967   92.7280    0.1129 C.ar    1  UNL1        0.3315
     11 O          60.8749   91.8497   -0.5462 O.2     1  UNL1       -0.2463
     12 N          62.0361   92.9650    1.5875 N.ar    1  UNL1       -0.2817
     13 C          63.1841   93.9070    1.7991 C.ar    1  UNL1        0.0796
     14 C          63.7839   94.4950    3.0418 C.ar    1  UNL1        0.0188
     15 C          64.9538   95.4283    2.9407 C.ar    1  UNL1        0.0016
     16 C          65.5239   95.7735    1.5969 C.ar    1  UNL1        0.0016
     17 C          64.9240   95.1855    0.3542 C.ar    1  UNL1        0.0188
     18 C          63.7541   94.2523    0.4553 C.ar    1  UNL1        0.0797
     19 C          63.1849   93.5806   -2.0685 C.3     1  UNL1        0.1120
     20 C          62.3330   94.4708   -2.9238 C.3     1  UNL1        0.0419
     21 C          61.0870   93.9305   -3.5607 C.3     1  UNL1        0.0742
     22 C          59.5617   95.0315   -1.7687 C.3     1  UNL1        0.0897
     23 N          59.7822   93.9875   -2.8230 N.3     1  UNL1       -0.2703
     24 C          58.6978   93.0007   -3.1395 C.3     1  UNL1        0.0897
     25 C          59.2327   89.7625    6.9852 C.3     1  UNL1        0.0795
     26 C          60.0285   90.4495    8.0552 C.3     1  UNL1        0.0264
     27 C          60.6566   89.6461    9.1553 C.3     1  UNL1        0.0729
     28 N          60.4889   88.1558    9.1854 N.3     1  UNL1       -0.2689
     29 C          59.6931   87.4689    8.1154 C.3     1  UNL1        0.0729
     30 C          59.0651   88.2722    7.0154 C.3     1  UNL1        0.0264
     31 C          61.1170   87.3525   10.2855 C.3     1  UNL1        0.0992
     32 C          61.9740   86.1671    9.9533 C.ar    1  UNL1       -0.0031
     33 C          62.4349   85.9464    8.5430 C.ar    1  UNL1        0.0178
     34 C          63.2919   84.7610    8.2109 C.ar    1  UNL1        0.0986
     35 N          63.6879   83.7962    9.2890 N.ar    1  UNL1       -0.2423
     36 C          63.2269   84.0169   10.6993 C.ar    1  UNL1        0.0986
     37 C          62.3700   85.2023   11.0314 C.ar    1  UNL1        0.0178
@<TRIPOS>BOND
     1    22    23    1
     2    23    24    1
     3    23    21    1
     4    21    20    1
     5    20    19    1
     6    19     9    1
     7     9    10   ar
     8    10    11    2
     9    10    12   ar
    10    12     1    1
    11     1     2    1
    12     2     3    1
    13     3     4    1
    14     4     5   am
    15     5     6    2
    16     5    25    1
    17    25    26    1
    18    26    27    1
    19    27    28    1
    20    28    31    1
    21    31    32    1
    22    32    33   ar
    23    33    34   ar
    24    34    35   ar
    25    35    36   ar
    26    36    37   ar
    27    28    29    1
    28    29    30    1
    29     4     7    1
    30     7     8    1
    31    12    13   ar
    32    13    14   ar
    33    14    15   ar
    34    15    16   ar
    35    16    17   ar
    36    17    18   ar
    37    18     9   ar
    38     8     1    1
    39    18    13   ar
    40    30    25    1
    41    37    32   ar
@<TRIPOS>MOLECULE
*****
 37 41 0 0 0
SMALL
GASTEIGER

@<TRIPOS>ATOM
      1 C          61.0593   92.3804    2.6229 C.3     1  UNL1        0.0933
      2 C          61.7222   91.5923    3.7136 C.3     1  UNL1        0.0442
      3 C          60.8963   90.9868    4.8096 C.3     1  UNL1        0.0953
      4 N          59.4074   91.1694    4.8149 N.am    1  UNL1       -0.2794
      5 C          58.5815   90.5639    5.9109 C.2     1  UNL1        0.2252
      6 O          57.0927   90.7465    5.9162 O.2     1  UNL1       -0.2749
      7 C          58.7446   91.9575    3.7243 C.3     1  UNL1        0.0953
      8 C          59.5706   92.5630    2.6283 C.3     1  UNL1        0.0442
      9 N          62.7193   93.5870   -0.6716 N.ar    1  UNL1       -0.2799
     10 C          61.6637   92.8068    0.0542 C.ar    1  UNL1        0.3315
     11 O          60.5772   91.9908   -0.5811 O.2     1  UNL1       -0.2463
     12 N          61.8853   92.9859    1.5269 N.ar    1  UNL1       -0.2817
     13 C          63.0779   93.8768    1.7113 C.ar    1  UNL1        0.0796
     14 C          63.7611   94.3978    2.9408 C.ar    1  UNL1        0.0188
     15 C          64.9597   95.2902    2.8116 C.ar    1  UNL1        0.0016
     16 C          65.4752   95.6617    1.4528 C.ar    1  UNL1        0.0016
     17 C          64.7920   95.1408    0.2233 C.ar    1  UNL1        0.0188
     18 C          63.5934   94.2483    0.3525 C.ar    1  UNL1        0.0797
     19 C          62.8738   93.6882   -2.1602 C.3     1  UNL1        0.1120
     20 C          64.0392   93.0324   -2.8396 C.3     1  UNL1        0.0419
     21 C          63.8660   92.4128   -4.1946 C.3     1  UNL1        0.0742
     22 C          64.9798   94.3987   -5.4458 C.3     1  UNL1        0.0897
     23 N          64.6425   92.9394   -5.3649 N.3     1  UNL1       -0.2703
     24 C          65.0819   92.0067   -6.4544 C.3     1  UNL1        0.0897
     25 C          59.2444   89.7759    7.0015 C.3     1  UNL1        0.0795
     26 C          59.0547   88.2897    7.0746 C.3     1  UNL1        0.0264
     27 C          59.7177   87.5017    8.1653 C.3     1  UNL1        0.0729
     28 N          60.5704   88.1998    9.1828 N.3     1  UNL1       -0.2689
     29 C          60.7601   89.6860    9.1098 C.3     1  UNL1        0.0729
     30 C          60.0972   90.4740    8.0191 C.3     1  UNL1        0.0264
     31 C          61.2334   87.4118   10.2734 C.3     1  UNL1        0.0992
     32 C          62.0437   86.1961    9.9340 C.ar    1  UNL1       -0.0031
     33 C          62.4629   85.9461    8.5156 C.ar    1  UNL1        0.0178
     34 C          63.2733   84.7304    8.1761 C.ar    1  UNL1        0.0986
     35 N          63.6645   83.7646    9.2550 N.ar    1  UNL1       -0.2423
     36 C          63.2454   84.0145   10.6734 C.ar    1  UNL1        0.0986
     37 C          62.4350   85.2302   11.0129 C.ar    1  UNL1        0.0178
@<TRIPOS>BOND
     1    22    23    1
     2    23    24    1
     3    23    21    1
     4    21    20    1
     5    20    19    1
     6    19     9    1
     7     9    10   ar
     8    10    11    2
     9    10    12   ar
    10    12     1    1
    11     1     2    1
    12     2     3    1
    13     3     4    1
    14     4     5   am
    15     5     6    2
    16     5    25    1
    17    25    26    1
    18    26    27    1
    19    27    28    1
    20    28    31    1
    21    31    32    1
    22    32    33   ar
    23    33    34   ar
    24    34    35   ar
    25    35    36   ar
    26    36    37   ar
    27    28    29    1
    28    29    30    1
    29     4     7    1
    30     7     8    1
    31    12    13   ar
    32    13    14   ar
    33    14    15   ar
    34    15    16   ar
    35    16    17   ar
    36    17    18   ar
    37    18     9   ar
    38     8     1    1
    39    18    13   ar
    40    30    25    1
    41    37    32   ar
@<TRIPOS>MOLECULE
*****
 37 41 0 0 0
SMALL
GASTEIGER

@<TRIPOS>ATOM
      1 C          60.4970   92.2689    3.2848 C.3     1  UNL1        0.0933
      2 C          61.3037   91.3206    4.1216 C.3     1  UNL1        0.0442
      3 C          60.6311   90.4923    5.1759 C.3     1  UNL1        0.0953
      4 N          59.1518   90.6122    5.3934 N.am    1  UNL1       -0.2794
      5 C          58.4792   89.7839    6.4477 C.2     1  UNL1        0.2252
      6 O          56.9999   89.9038    6.6652 O.2     1  UNL1       -0.2749
      7 C          58.3451   91.5604    4.5566 C.3     1  UNL1        0.0953
      8 C          59.0178   92.3888    3.5024 C.3     1  UNL1        0.0442
      9 N          62.8744   94.1891    0.8919 N.ar    1  UNL1       -0.2799
     10 C          62.6487   93.2884    2.0699 C.ar    1  UNL1        0.3315
     11 O          63.7148   92.6848    2.9354 O.2     1  UNL1       -0.2463
     12 N          61.1696   93.0972    2.2305 N.ar    1  UNL1       -0.2817
     13 C          60.4812   93.8798    1.1518 C.ar    1  UNL1        0.0796
     14 C          59.0311   94.0651    0.8160 C.ar    1  UNL1        0.0188
     15 C          58.6346   94.9252   -0.3472 C.ar    1  UNL1        0.0016
     16 C          59.6882   95.6000   -1.1745 C.ar    1  UNL1        0.0016
     17 C          61.1383   95.4148   -0.8387 C.ar    1  UNL1        0.0188
     18 C          61.5348   94.5546    0.3245 C.ar    1  UNL1        0.0797
     19 C          64.2059   94.6444    0.3725 C.3     1  UNL1        0.1120
     20 C          64.5649   94.4234   -1.0670 C.3     1  UNL1        0.0419
     21 C          63.7200   93.5256   -1.9214 C.3     1  UNL1        0.0742
     22 C          64.6725   92.8357   -4.2380 C.3     1  UNL1        0.0897
     23 N          63.7405   93.6737   -3.4139 N.3     1  UNL1       -0.2703
     24 C          62.8291   94.6598   -4.0824 C.3     1  UNL1        0.0897
     25 C          59.2859   88.8357    7.2843 C.3     1  UNL1        0.0795
     26 C          59.2798   87.3686    6.9722 C.3     1  UNL1        0.0264
     27 C          60.0866   86.4204    7.8090 C.3     1  UNL1        0.0729
     28 N          60.8995   86.9394    8.9579 N.3     1  UNL1       -0.2689
     29 C          60.9056   88.4065    9.2700 C.3     1  UNL1        0.0729
     30 C          60.0988   89.3547    8.4332 C.3     1  UNL1        0.0264
     31 C          61.7062   85.9912    9.7945 C.3     1  UNL1        0.0992
     32 C          62.3734   86.4774   11.0469 C.ar    1  UNL1       -0.0031
     33 C          62.6181   87.9439   11.2455 C.ar    1  UNL1        0.0178
     34 C          63.2854   88.4301   12.4979 C.ar    1  UNL1        0.0986
     35 N          63.7078   87.4498   13.5516 N.ar    1  UNL1       -0.2423
     36 C          63.4631   85.9833   13.3530 C.ar    1  UNL1        0.0986
     37 C          62.7959   85.4971   12.1007 C.ar    1  UNL1        0.0178
@<TRIPOS>BOND
     1    22    23    1
     2    23    24    1
     3    23    21    1
     4    21    20    1
     5    20    19    1
     6    19     9    1
     7     9    10   ar
     8    10    11    2
     9    10    12   ar
    10    12     1    1
    11     1     2    1
    12     2     3    1
    13     3     4    1
    14     4     5   am
    15     5     6    2
    16     5    25    1
    17    25    26    1
    18    26    27    1
    19    27    28    1
    20    28    31    1
    21    31    32    1
    22    32    33   ar
    23    33    34   ar
    24    34    35   ar
    25    35    36   ar
    26    36    37   ar
    27    28    29    1
    28    29    30    1
    29     4     7    1
    30     7     8    1
    31    12    13   ar
    32    13    14   ar
    33    14    15   ar
    34    15    16   ar
    35    16    17   ar
    36    17    18   ar
    37    18     9   ar
    38     8     1    1
    39    18    13   ar
    40    30    25    1
    41    37    32   ar
