@<TRIPOS>MOLECULE
*****
 47 52 0 0 0
SMALL
GASTEIGER

@<TRIPOS>ATOM
      1 C          61.7046   89.7327   11.8929 C.3     1  UNL1        0.1305
      2 N          61.7536   88.4345   11.1431 N.ar    1  UNL1       -0.3242
      3 C          62.4760   87.1932   11.5758 C.ar    1  UNL1        0.0738
      4 C          62.2577   86.1412   10.5290 C.ar    1  UNL1       -0.0038
      5 C          61.4004   86.7324    9.4494 C.ar    1  UNL1        0.0133
      6 C          60.8632   86.1632    8.1698 C.ar    1  UNL1        0.0013
      7 C          60.0145   87.0114    7.2697 C.ar    1  UNL1        0.0046
      8 C          59.7029   88.4288    7.6492 C.ar    1  UNL1        0.0548
      9 C          60.2401   88.9979    8.9288 C.ar    1  UNL1        0.0217
     10 C          61.0888   88.1498    9.8289 C.ar    1  UNL1        0.0598
     11 C          63.2762   87.0321   12.8342 C.ar    1  UNL1        0.0981
     12 C          63.8683   88.2356   13.5057 C.ar    1  UNL1        0.0207
     13 C          64.6685   88.0745   14.7642 C.ar    1  UNL1        0.0044
     14 C          64.8765   86.7099   15.3512 C.ar    1  UNL1        0.0339
     15 C          64.2844   85.5064   14.6797 C.ar    1  UNL1        0.1254
     16 N          64.4924   84.1418   15.2667 N.pl3   1  UNL1       -0.3426
     17 N          63.4842   85.6675   13.4212 N.ar    1  UNL1       -0.2297
     18 H          65.0175   84.0360   16.0927 H       1  UNL1        0.1437
     19 H          64.1037   83.3519   14.8260 H       1  UNL1        0.1437
     20 C          62.8012   84.7434   10.5569 C.3     1  UNL1        0.0238
     21 C          63.8270   84.1774    9.6204 C.3     1  UNL1        0.0044
     22 C          64.0742   82.7504   10.0109 C.3     1  UNL1        0.0003
     23 C          63.2010   82.4345   11.1890 C.3     1  UNL1        0.0003
     24 C          62.4143   83.6662   11.5264 C.3     1  UNL1        0.0044
     25 C          58.8541   89.2770    6.7490 C.2     1  UNL1        0.2461
     26 O          57.3774   89.0297    6.6587 O.2     1  UNL1       -0.2701
     27 N          59.4821   90.3724    5.9393 N.am    1  UNL1       -0.2964
     28 H          60.4513   90.5346    5.9986 H       1  UNL1        0.1501
     29 C          58.6333   91.2205    5.0391 C.3     1  UNL1        0.1260
     30 C          57.3985   90.7005    5.7135 C.3     1  UNL1        0.0270
     31 C          56.5498   91.5486    4.8134 C.3     1  UNL1        0.0043
     32 C          57.7845   92.0687    4.1390 C.3     1  UNL1        0.0270
     33 C          59.8681   91.7406    4.3648 C.2     1  UNL1        0.2419
     34 O          61.2212   91.2762    4.8160 O.2     1  UNL1       -0.2731
     35 N          59.7499   92.7251    3.2393 N.am    1  UNL1       -0.2826
     36 H          58.8618   93.0299    2.9431 H       1  UNL1        0.1549
     37 C          60.9848   93.2452    2.5649 C.ar    1  UNL1        0.0503
     38 C          62.2274   92.4060    2.5251 C.ar    1  UNL1        0.0147
     39 C          63.4623   92.9260    1.8508 C.ar    1  UNL1        0.0013
     40 C          63.4545   94.2852    1.2163 C.ar    1  UNL1        0.0001
     41 C          62.2118   95.1244    1.2561 C.ar    1  UNL1        0.0013
     42 C          60.9769   94.6043    1.9304 C.ar    1  UNL1        0.0147
     43 C          64.6893   94.8052    0.5420 C.2     1  UNL1        0.0012
     44 C          64.5814   95.8932   -0.4850 C.2     1  UNL1        0.0151
     45 C          65.8163   96.4132   -1.1593 C.2     1  UNL1        0.0729
     46 O          65.8766   96.4927   -2.6560 O.co2   1  UNL1       -0.5446
     47 O          66.9909   96.8538   -0.3369 O.co2   1  UNL1       -0.5446
@<TRIPOS>UNITY_ATOM_ATTR
46 1
charge -1
@<TRIPOS>BOND
     1     1     2    1
     2     2     3   ar
     3     3    11    1
     4    11    12   ar
     5    12    13   ar
     6    13    14   ar
     7    14    15   ar
     8    15    16    1
     9    15    17   ar
    10     3     4   ar
    11     4    20    1
    12    20    21    1
    13    21    22    1
    14    22    23    1
    15    23    24    1
    16     4     5   ar
    17     5     6   ar
    18     6     7   ar
    19     7     8   ar
    20     8    25    1
    21    25    26    2
    22    25    27   am
    23    27    29    1
    24    29    33    1
    25    33    34    2
    26    33    35   am
    27    35    37    1
    28    37    38   ar
    29    38    39   ar
    30    39    40   ar
    31    40    43    1
    32    43    44    2
    33    44    45    1
    34    45    46   ar
    35    45    47   ar
    36    40    41   ar
    37    41    42   ar
    38    29    30    1
    39    30    31    1
    40    31    32    1
    41     8     9   ar
    42     9    10   ar
    43    10     2   ar
    44    17    11   ar
    45    24    20    1
    46    10     5   ar
    47    32    29    1
    48    42    37   ar
    49    16    18    1
    50    16    19    1
    51    27    28    1
    52    35    36    1
@<TRIPOS>MOLECULE
*****
 47 52 0 0 0
SMALL
GASTEIGER

@<TRIPOS>ATOM
      1 C          64.7096   89.8987   14.3362 C.3     1  UNL1        0.1305
      2 N          64.7902   90.8911   13.2143 N.ar    1  UNL1       -0.3242
      3 C          65.7516   92.0386   13.1196 C.ar    1  UNL1        0.0738
      4 C          65.4791   92.7669   11.8369 C.ar    1  UNL1       -0.0038
      5 C          64.3492   92.0696   11.1389 C.ar    1  UNL1        0.0133
      6 C          63.6531   92.3405    9.8381 C.ar    1  UNL1        0.0013
      7 C          62.5312   91.4521    9.3887 C.ar    1  UNL1        0.0046
      8 C          62.1054   90.2928   10.2400 C.ar    1  UNL1        0.0548
      9 C          62.8016   90.0219   11.5407 C.ar    1  UNL1        0.0217
     10 C          63.9234   90.9103   11.9902 C.ar    1  UNL1        0.0598
     11 C          66.8012   92.3951   14.1301 C.ar    1  UNL1        0.0981
     12 C          66.4039   92.7373   15.5354 C.ar    1  UNL1        0.0207
     13 C          67.4535   93.0938   16.5459 C.ar    1  UNL1        0.0044
     14 C          68.9005   93.1082   16.1511 C.ar    1  UNL1        0.0339
     15 C          69.2979   92.7660   14.7458 C.ar    1  UNL1        0.1254
     16 N          70.7450   92.7803   14.3509 N.pl3   1  UNL1       -0.3426
     17 N          68.2482   92.4094   13.7353 N.ar    1  UNL1       -0.2297
     18 H          71.4339   93.0143   15.0141 H       1  UNL1        0.1437
     19 H          71.0058   92.5557   13.4285 H       1  UNL1        0.1437
     20 C          66.2083   93.9797   11.3395 C.3     1  UNL1        0.0238
     21 C          66.1521   95.3516   11.9432 C.3     1  UNL1        0.0044
     22 C          67.0309   96.2533   11.1279 C.3     1  UNL1        0.0003
     23 C          67.6303   95.4385   10.0202 C.3     1  UNL1        0.0003
     24 C          67.1219   94.0333   10.1510 C.3     1  UNL1        0.0044
     25 C          60.9835   89.4043    9.7905 C.2     1  UNL1        0.2461
     26 O          59.9783   88.9042   10.7852 O.2     1  UNL1       -0.2701
     27 N          60.8668   89.0161    8.3463 N.am    1  UNL1       -0.2964
     28 H          61.5265   89.3444    7.6935 H       1  UNL1        0.1501
     29 C          59.7448   88.1276    7.8968 C.3     1  UNL1        0.1260
     30 C          59.2093   89.2370    7.0410 C.3     1  UNL1        0.0270
     31 C          58.0874   88.3487    6.5915 C.3     1  UNL1        0.0043
     32 C          58.6229   87.2393    7.4473 C.3     1  UNL1        0.0270
     33 C          60.2804   87.0183    8.7526 C.2     1  UNL1        0.2419
     34 O          59.3359   86.0616    9.4181 O.2     1  UNL1       -0.2731
     35 N          61.7604   86.8655    8.9429 N.am    1  UNL1       -0.2826
     36 H          62.3803   87.4933    8.5061 H       1  UNL1        0.1549
     37 C          62.2959   85.7560    9.7987 C.ar    1  UNL1        0.0503
     38 C          63.1492   84.6835    9.1890 C.ar    1  UNL1        0.0147
     39 C          63.6847   83.5741   10.0448 C.ar    1  UNL1        0.0013
     40 C          63.3670   83.5371   11.5103 C.ar    1  UNL1        0.0001
     41 C          62.5137   84.6096   12.1200 C.ar    1  UNL1        0.0013
     42 C          61.9782   85.7191   11.2642 C.ar    1  UNL1        0.0147
     43 C          63.9025   82.4277   12.3661 C.2     1  UNL1        0.0012
     44 C          62.9631   81.4272   12.9715 C.2     1  UNL1        0.0151
     45 C          63.4986   80.3178   13.8272 C.2     1  UNL1        0.0729
     46 O          62.7349   79.0329   13.9541 O.co2   1  UNL1       -0.5446
     47 O          64.7978   80.4931   14.5562 O.co2   1  UNL1       -0.5446
@<TRIPOS>UNITY_ATOM_ATTR
46 1
charge -1
@<TRIPOS>BOND
     1     1     2    1
     2     2     3   ar
     3     3    11    1
     4    11    12   ar
     5    12    13   ar
     6    13    14   ar
     7    14    15   ar
     8    15    16    1
     9    15    17   ar
    10     3     4   ar
    11     4    20    1
    12    20    21    1
    13    21    22    1
    14    22    23    1
    15    23    24    1
    16     4     5   ar
    17     5     6   ar
    18     6     7   ar
    19     7     8   ar
    20     8    25    1
    21    25    26    2
    22    25    27   am
    23    27    29    1
    24    29    33    1
    25    33    34    2
    26    33    35   am
    27    35    37    1
    28    37    38   ar
    29    38    39   ar
    30    39    40   ar
    31    40    43    1
    32    43    44    2
    33    44    45    1
    34    45    46   ar
    35    45    47   ar
    36    40    41   ar
    37    41    42   ar
    38    29    30    1
    39    30    31    1
    40    31    32    1
    41     8     9   ar
    42     9    10   ar
    43    10     2   ar
    44    17    11   ar
    45    24    20    1
    46    10     5   ar
    47    32    29    1
    48    42    37   ar
    49    16    18    1
    50    16    19    1
    51    27    28    1
    52    35    36    1
@<TRIPOS>MOLECULE
*****
 47 52 0 0 0
SMALL
GASTEIGER

@<TRIPOS>ATOM
      1 C          58.1075   93.1609    1.0625 C.3     1  UNL1        0.1305
      2 N          59.5534   93.0831    1.4542 N.ar    1  UNL1       -0.3242
      3 C          60.7007   93.7117    0.7204 C.ar    1  UNL1        0.0738
      4 C          61.9621   93.3801    1.4612 C.ar    1  UNL1       -0.0038
      5 C          61.5944   92.5465    2.6529 C.ar    1  UNL1        0.0133
      6 C          62.4228   91.9310    3.7413 C.ar    1  UNL1        0.0013
      7 C          61.7625   91.1318    4.8254 C.ar    1  UNL1        0.0046
      8 C          60.2738   90.9483    4.8211 C.ar    1  UNL1        0.0548
      9 C          59.4454   91.5638    3.7326 C.ar    1  UNL1        0.0217
     10 C          60.1057   92.3630    2.6485 C.ar    1  UNL1        0.0598
     11 C          60.6037   94.5285   -0.5339 C.ar    1  UNL1        0.0981
     12 C          59.9972   95.8998   -0.4910 C.ar    1  UNL1        0.0207
     13 C          59.9001   96.7166   -1.7453 C.ar    1  UNL1        0.0044
     14 C          60.4095   96.1621   -3.0426 C.ar    1  UNL1        0.0339
     15 C          61.0160   94.7909   -3.0856 C.ar    1  UNL1        0.1254
     16 N          61.5255   94.2364   -4.3830 N.pl3   1  UNL1       -0.3426
     17 N          61.1131   93.9741   -1.8313 N.ar    1  UNL1       -0.2297
     18 H          61.4618   94.7725   -5.2063 H       1  UNL1        0.1437
     19 H          61.9235   93.3364   -4.4112 H       1  UNL1        0.1437
     20 C          63.3480   93.8071    1.0778 C.3     1  UNL1        0.0238
     21 C          63.7516   95.1735    0.6090 C.3     1  UNL1        0.0044
     22 C          65.2267   95.1536    0.3373 C.3     1  UNL1        0.0003
     23 C          65.7347   93.7746    0.6381 C.3     1  UNL1        0.0003
     24 C          64.5736   92.9425    1.0958 C.3     1  UNL1        0.0044
     25 C          59.6135   90.1491    5.9053 C.2     1  UNL1        0.2461
     26 O          58.1187   90.1451    6.0296 O.2     1  UNL1       -0.2701
     27 N          60.4480   89.3539    6.8650 N.am    1  UNL1       -0.2964
     28 H          61.4291   89.3565    6.7834 H       1  UNL1        0.1501
     29 C          59.7877   88.5547    7.9492 C.3     1  UNL1        0.1260
     30 C          59.0288   87.7781    6.9145 C.3     1  UNL1        0.0270
     31 C          58.3685   86.9789    7.9985 C.3     1  UNL1        0.0043
     32 C          59.1274   87.7556    9.0333 C.3     1  UNL1        0.0270
     33 C          60.5467   89.3314    8.9840 C.2     1  UNL1        0.2419
     34 O          59.9464   90.5689    9.5826 O.2     1  UNL1       -0.2731
     35 N          61.9058   88.8705    9.4202 N.am    1  UNL1       -0.2826
     36 H          62.2998   88.0583    9.0273 H       1  UNL1        0.1549
     37 C          62.6648   89.6472   10.4550 C.ar    1  UNL1        0.0503
     38 C          63.2639   90.9770   10.1047 C.ar    1  UNL1        0.0147
     39 C          64.0228   91.7537   11.1394 C.ar    1  UNL1        0.0013
     40 C          64.1826   91.2006   12.5246 C.ar    1  UNL1        0.0001
     41 C          63.5835   89.8708   12.8750 C.ar    1  UNL1        0.0013
     42 C          62.8246   89.0941   11.8401 C.ar    1  UNL1        0.0147
     43 C          64.9415   91.9773   13.5594 C.2     1  UNL1        0.0012
     44 C          66.3897   91.6770   13.8099 C.2     1  UNL1        0.0151
     45 C          67.1486   92.4537   14.8446 C.2     1  UNL1        0.0729
     46 O          68.5216   92.9727   14.5353 O.co2   1  UNL1       -0.5446
     47 O          66.5346   92.7115   16.1887 O.co2   1  UNL1       -0.5446
@<TRIPOS>UNITY_ATOM_ATTR
46 1
charge -1
@<TRIPOS>BOND
     1     1     2    1
     2     2     3   ar
     3     3    11    1
     4    11    12   ar
     5    12    13   ar
     6    13    14   ar
     7    14    15   ar
     8    15    16    1
     9    15    17   ar
    10     3     4   ar
    11     4    20    1
    12    20    21    1
    13    21    22    1
    14    22    23    1
    15    23    24    1
    16     4     5   ar
    17     5     6   ar
    18     6     7   ar
    19     7     8   ar
    20     8    25    1
    21    25    26    2
    22    25    27   am
    23    27    29    1
    24    29    33    1
    25    33    34    2
    26    33    35   am
    27    35    37    1
    28    37    38   ar
    29    38    39   ar
    30    39    40   ar
    31    40    43    1
    32    43    44    2
    33    44    45    1
    34    45    46   ar
    35    45    47   ar
    36    40    41   ar
    37    41    42   ar
    38    29    30    1
    39    30    31    1
    40    31    32    1
    41     8     9   ar
    42     9    10   ar
    43    10     2   ar
    44    17    11   ar
    45    24    20    1
    46    10     5   ar
    47    32    29    1
    48    42    37   ar
    49    16    18    1
    50    16    19    1
    51    27    28    1
    52    35    36    1
@<TRIPOS>MOLECULE
*****
 47 52 0 0 0
SMALL
GASTEIGER

@<TRIPOS>ATOM
      1 C          63.1254   92.4595   10.9075 C.3     1  UNL1        0.1305
      2 N          62.9438   90.9950   11.1759 N.ar    1  UNL1       -0.3242
      3 C          63.5995   90.2120   12.2745 C.ar    1  UNL1        0.0738
      4 C          63.1356   88.7894   12.1704 C.ar    1  UNL1       -0.0038
      5 C          62.1931   88.6931   11.0074 C.ar    1  UNL1        0.0133
      6 C          61.4276   87.5403   10.4287 C.ar    1  UNL1        0.0013
      7 C          60.5435   87.7506    9.2354 C.ar    1  UNL1        0.0046
      8 C          60.4250   89.1138    8.6207 C.ar    1  UNL1        0.0548
      9 C          61.1905   90.2666    9.1994 C.ar    1  UNL1        0.0217
     10 C          62.0746   90.0562   10.3928 C.ar    1  UNL1        0.0598
     11 C          64.5520   90.7562   13.2976 C.ar    1  UNL1        0.0981
     12 C          64.1004   90.9493   14.7149 C.ar    1  UNL1        0.0207
     13 C          65.0528   91.4935   15.7380 C.ar    1  UNL1        0.0044
     14 C          66.4569   91.8444   15.3439 C.ar    1  UNL1        0.0339
     15 C          66.9085   91.6513   13.9266 C.ar    1  UNL1        0.1254
     16 N          68.3126   92.0023   13.5324 N.pl3   1  UNL1       -0.3426
     17 N          65.9560   91.1071   12.9035 N.ar    1  UNL1       -0.2297
     18 H          68.9378   92.3594   14.2039 H       1  UNL1        0.1437
     19 H          68.6090   91.8755   12.6021 H       1  UNL1        0.1437
     20 C          63.5426   87.6611   13.0711 C.3     1  UNL1        0.0238
     21 C          63.3007   86.2021   12.8211 C.3     1  UNL1        0.0044
     22 C          63.8716   85.4329   13.9754 C.3     1  UNL1        0.0003
     23 C          64.4664   86.4168   14.9389 C.3     1  UNL1        0.0003
     24 C          64.2631   87.7938   14.3801 C.3     1  UNL1        0.0044
     25 C          59.5408   89.3241    7.4273 C.2     1  UNL1        0.2461
     26 O          58.7354   88.1830    6.8803 O.2     1  UNL1       -0.2701
     27 N          59.4621   90.6754    6.7811 N.am    1  UNL1       -0.2964
     28 H          59.9908   91.4243    7.1401 H       1  UNL1        0.1501
     29 C          58.5780   90.8857    5.5876 C.3     1  UNL1        0.1260
     30 C          57.4110   90.3404    6.3562 C.3     1  UNL1        0.0270
     31 C          56.5268   90.5507    5.1629 C.3     1  UNL1        0.0043
     32 C          57.6938   91.0960    4.3943 C.3     1  UNL1        0.0270
     33 C          59.7450   91.4310    4.8191 C.2     1  UNL1        0.2419
     34 O          61.1399   91.0075    5.1728 O.2     1  UNL1       -0.2731
     35 N          59.5172   92.3998    3.6968 N.am    1  UNL1       -0.2826
     36 H          58.6018   92.6778    3.4646 H       1  UNL1        0.1549
     37 C          60.6843   92.9451    2.9282 C.ar    1  UNL1        0.0503
     38 C          60.5695   94.2665    2.2277 C.ar    1  UNL1        0.0147
     39 C          61.7366   94.8118    1.4592 C.ar    1  UNL1        0.0013
     40 C          63.0184   94.0357    1.3911 C.ar    1  UNL1        0.0001
     41 C          63.1332   92.7143    2.0917 C.ar    1  UNL1        0.0013
     42 C          61.9661   92.1690    2.8602 C.ar    1  UNL1        0.0147
     43 C          64.1854   94.5810    0.6226 C.2     1  UNL1        0.0012
     44 C          63.9573   95.3242   -0.6602 C.2     1  UNL1        0.0151
     45 C          65.1244   95.8695   -1.4288 C.2     1  UNL1        0.0729
     46 O          65.1183   95.8320   -2.9283 O.co2   1  UNL1       -0.5446
     47 O          66.2974   96.4522   -0.6978 O.co2   1  UNL1       -0.5446
@<TRIPOS>UNITY_ATOM_ATTR
46 1
charge -1
@<TRIPOS>BOND
     1     1     2    1
     2     2     3   ar
     3     3    11    1
     4    11    12   ar
     5    12    13   ar
     6    13    14   ar
     7    14    15   ar
     8    15    16    1
     9    15    17   ar
    10     3     4   ar
    11     4    20    1
    12    20    21    1
    13    21    22    1
    14    22    23    1
    15    23    24    1
    16     4     5   ar
    17     5     6   ar
    18     6     7   ar
    19     7     8   ar
    20     8    25    1
    21    25    26    2
    22    25    27   am
    23    27    29    1
    24    29    33    1
    25    33    34    2
    26    33    35   am
    27    35    37    1
    28    37    38   ar
    29    38    39   ar
    30    39    40   ar
    31    40    43    1
    32    43    44    2
    33    44    45    1
    34    45    46   ar
    35    45    47   ar
    36    40    41   ar
    37    41    42   ar
    38    29    30    1
    39    30    31    1
    40    31    32    1
    41     8     9   ar
    42     9    10   ar
    43    10     2   ar
    44    17    11   ar
    45    24    20    1
    46    10     5   ar
    47    32    29    1
    48    42    37   ar
    49    16    18    1
    50    16    19    1
    51    27    28    1
    52    35    36    1
@<TRIPOS>MOLECULE
*****
 47 52 0 0 0
SMALL
GASTEIGER

@<TRIPOS>ATOM
      1 C          64.1120   92.1035   10.6467 C.3     1  UNL1        0.1305
      2 N          64.9337   91.9352   11.8903 N.ar    1  UNL1       -0.3242
      3 C          65.9438   92.9104   12.4183 C.ar    1  UNL1        0.0738
      4 C          66.5240   92.3400   13.6785 C.ar    1  UNL1       -0.0038
      5 C          65.8724   91.0123   13.9293 C.ar    1  UNL1        0.0133
      6 C          66.0471   89.9989   15.0213 C.ar    1  UNL1        0.0013
      7 C          65.2390   88.7353   15.0080 C.ar    1  UNL1        0.0046
      8 C          64.2561   88.4852   13.9028 C.ar    1  UNL1        0.0548
      9 C          64.0815   89.4986   12.8109 C.ar    1  UNL1        0.0217
     10 C          64.8896   90.7622   12.8241 C.ar    1  UNL1        0.0598
     11 C          66.3096   94.2250   11.7955 C.ar    1  UNL1        0.0981
     12 C          66.0250   95.5050   12.5239 C.ar    1  UNL1        0.0207
     13 C          66.3907   96.8197   11.9011 C.ar    1  UNL1        0.0044
     14 C          67.0410   96.8544   10.5499 C.ar    1  UNL1        0.0339
     15 C          67.3256   95.5744    9.8214 C.ar    1  UNL1        0.1254
     16 N          67.9759   95.6090    8.4701 N.pl3   1  UNL1       -0.3426
     17 N          66.9598   94.2597   10.4442 N.ar    1  UNL1       -0.2297
     18 H          68.2159   96.4719    8.0613 H       1  UNL1        0.1437
     19 H          68.1626   94.7689    7.9920 H       1  UNL1        0.1437
     20 C          67.5717   92.9841   14.5371 C.3     1  UNL1        0.0238
     21 C          69.0235   92.6105   14.5861 C.3     1  UNL1        0.0044
     22 C          69.7008   93.5104   15.5769 C.3     1  UNL1        0.0003
     23 C          68.6673   94.4403   16.1402 C.3     1  UNL1        0.0003
     24 C          67.3515   94.1151   15.4976 C.3     1  UNL1        0.0044
     25 C          63.4480   87.2215   13.8896 C.2     1  UNL1        0.2461
     26 O          62.3189   87.0432   14.8608 O.2     1  UNL1       -0.2701
     27 N          63.7690   86.1362   12.9052 N.am    1  UNL1       -0.2964
     28 H          64.5101   86.2533   12.2678 H       1  UNL1        0.1501
     29 C          62.9608   84.8726   12.8920 C.3     1  UNL1        0.1260
     30 C          63.7396   84.3623   14.0680 C.3     1  UNL1        0.0270
     31 C          62.9315   83.0987   14.0549 C.3     1  UNL1        0.0043
     32 C          62.1527   83.6089   12.8789 C.3     1  UNL1        0.0270
     33 C          62.1820   85.3828   11.7160 C.2     1  UNL1        0.2419
     34 O          61.5986   84.4177   10.7269 O.2     1  UNL1       -0.2731
     35 N          61.9866   86.8583   11.5290 N.am    1  UNL1       -0.2826
     36 H          62.3695   87.4917   12.1781 H       1  UNL1        0.1549
     37 C          61.2078   87.3685   10.3529 C.ar    1  UNL1        0.0503
     38 C          60.7962   86.4268    9.2603 C.ar    1  UNL1        0.0147
     39 C          60.0174   86.9370    8.0843 C.ar    1  UNL1        0.0013
     40 C          59.6501   88.3890    8.0008 C.ar    1  UNL1        0.0001
     41 C          60.0617   89.3307    9.0934 C.ar    1  UNL1        0.0013
     42 C          60.8406   88.8205   10.2695 C.ar    1  UNL1        0.0147
     43 C          58.8713   88.8992    6.8247 C.2     1  UNL1        0.0012
     44 C          58.8864   90.3619    6.4928 C.2     1  UNL1        0.0151
     45 C          58.1076   90.8721    5.3167 C.2     1  UNL1        0.0729
     46 O          58.8190   91.5479    4.1821 O.co2   1  UNL1       -0.5446
     47 O          56.6173   90.7066    5.2752 O.co2   1  UNL1       -0.5446
@<TRIPOS>UNITY_ATOM_ATTR
46 1
charge -1
@<TRIPOS>BOND
     1     1     2    1
     2     2     3   ar
     3     3    11    1
     4    11    12   ar
     5    12    13   ar
     6    13    14   ar
     7    14    15   ar
     8    15    16    1
     9    15    17   ar
    10     3     4   ar
    11     4    20    1
    12    20    21    1
    13    21    22    1
    14    22    23    1
    15    23    24    1
    16     4     5   ar
    17     5     6   ar
    18     6     7   ar
    19     7     8   ar
    20     8    25    1
    21    25    26    2
    22    25    27   am
    23    27    29    1
    24    29    33    1
    25    33    34    2
    26    33    35   am
    27    35    37    1
    28    37    38   ar
    29    38    39   ar
    30    39    40   ar
    31    40    43    1
    32    43    44    2
    33    44    45    1
    34    45    46   ar
    35    45    47   ar
    36    40    41   ar
    37    41    42   ar
    38    29    30    1
    39    30    31    1
    40    31    32    1
    41     8     9   ar
    42     9    10   ar
    43    10     2   ar
    44    17    11   ar
    45    24    20    1
    46    10     5   ar
    47    32    29    1
    48    42    37   ar
    49    16    18    1
    50    16    19    1
    51    27    28    1
    52    35    36    1
