@<TRIPOS>MOLECULE
*****
 33 37 0 0 0
SMALL
GASTEIGER

@<TRIPOS>ATOM
      1 C          64.1656   90.1740   14.4955 C.ar    1  UNL1        0.0519
      2 C          63.8463   90.7375   15.8484 C.ar    1  UNL1        0.0148
      3 C          63.3975   89.8275   16.9531 C.ar    1  UNL1        0.0044
      4 C          63.2680   88.3538   16.7049 C.ar    1  UNL1        0.0402
      5 C          62.8518   87.2191   17.5932 C.ar    1  UNL1        0.1235
      6 N          62.9139   85.9543   16.7893 N.ar    1  UNL1       -0.1468
      7 N          63.3686   86.3072   15.4041 N.ar    1  UNL1       -0.1274
      8 C          63.5874   87.7903   15.3519 C.ar    1  UNL1        0.1053
      9 C          64.0362   88.7003   14.2473 C.ar    1  UNL1        0.0354
     10 O          66.8929   91.4201   14.5933 O.2     1  UNL1       -0.2748
     11 C          65.9780   91.7072   13.4398 C.2     1  UNL1        0.2257
     12 N          64.6144   91.0841   13.3909 N.am    1  UNL1       -0.2839
     13 H          64.0140   91.2725   12.6338 H       1  UNL1        0.1549
     14 C          66.4268   92.6173   12.3351 C.3     1  UNL1        0.0796
     15 C          66.1001   94.0803   12.3893 C.3     1  UNL1        0.0262
     16 C          66.5488   94.9905   11.2847 C.3     1  UNL1        0.0691
     17 N          67.3242   94.4376   10.1258 N.3     1  UNL1       -0.2974
     18 C          67.6509   92.9747   10.0715 C.3     1  UNL1        0.0691
     19 C          67.2022   92.0645   11.1762 C.3     1  UNL1        0.0262
     20 H          68.2123   94.9388   10.0998 H       1  UNL1        0.1232
     21 S          63.5691   85.3460   14.2702 S.O2    1  UNL1        0.1006
     22 O          65.0072   85.7613   14.1724 O.2     1  UNL1       -0.1463
     23 O          62.1311   84.9307   14.3679 O.2     1  UNL1       -0.1463
     24 C          63.7697   84.3848   13.1362 C.ar    1  UNL1        0.1291
     25 C          64.3841   83.0406   13.3923 C.ar    1  UNL1        0.0204
     26 C          64.5847   82.0793   12.2583 C.ar    1  UNL1        0.0014
     27 C          64.1708   82.4623   10.8684 C.ar    1  UNL1        0.0001
     28 C          63.5564   83.8065   10.6123 C.ar    1  UNL1        0.0013
     29 C          63.1425   84.1894    9.2223 C.ar    1  UNL1        0.0000
     30 C          62.5281   85.5336    8.9663 C.ar    1  UNL1        0.0000
     31 C          62.3275   86.4949   10.1002 C.ar    1  UNL1        0.0000
     32 C          62.7414   86.1119   11.4902 C.ar    1  UNL1        0.0013
     33 C          63.3558   84.7678   11.7462 C.ar    1  UNL1        0.0191
@<TRIPOS>BOND
     1    10    11    2
     2    11    12   am
     3    12     1    1
     4     1     2   ar
     5     2     3   ar
     6     3     4   ar
     7     4     5   ar
     8     5     6   ar
     9     6     7   ar
    10     7    21    1
    11    21    22    2
    12    21    23    2
    13    21    24    1
    14    24    25   ar
    15    25    26   ar
    16    26    27   ar
    17    27    28   ar
    18    28    29   ar
    19    29    30   ar
    20    30    31   ar
    21    31    32   ar
    22    32    33   ar
    23     7     8   ar
    24     8     9   ar
    25    11    14    1
    26    14    15    1
    27    15    16    1
    28    16    17    1
    29    17    18    1
    30    18    19    1
    31     9     1   ar
    32    19    14    1
    33     8     4   ar
    34    33    24   ar
    35    33    28   ar
    36    12    13    1
    37    17    20    1
@<TRIPOS>MOLECULE
*****
 33 37 0 0 0
SMALL
GASTEIGER

@<TRIPOS>ATOM
      1 C          63.8654   88.7126   14.3967 C.ar    1  UNL1        0.0519
      2 C          63.4005   88.8766   15.8134 C.ar    1  UNL1        0.0148
      3 C          63.7220   90.1327   16.5676 C.ar    1  UNL1        0.0044
      4 C          64.5085   91.2247   15.9052 C.ar    1  UNL1        0.0402
      5 C          64.9733   92.5647   16.3933 C.ar    1  UNL1        0.1235
      6 N          65.7255   93.2288   15.2783 N.ar    1  UNL1       -0.1468
      7 N          65.7256   92.2993   14.1011 N.ar    1  UNL1       -0.1274
      8 C          64.9735   91.0607   14.4885 C.ar    1  UNL1        0.1053
      9 C          64.6519   89.8046   13.7343 C.ar    1  UNL1        0.0354
     10 O          65.0456   86.0957   15.2683 O.2     1  UNL1       -0.2748
     11 C          64.1339   86.1481   14.0783 C.2     1  UNL1        0.2257
     12 N          63.5438   87.4565   13.6426 N.am    1  UNL1       -0.2839
     13 H          62.9454   87.4908   12.8615 H       1  UNL1        0.1549
     14 C          63.8122   84.8919   13.3241 C.3     1  UNL1        0.0796
     15 C          64.3091   83.5683   13.8250 C.3     1  UNL1        0.0262
     16 C          63.9875   82.3122   13.0709 C.3     1  UNL1        0.0691
     17 N          63.1689   82.3798   11.8157 N.3     1  UNL1       -0.2974
     18 C          62.6721   83.7035   11.3148 C.3     1  UNL1        0.0691
     19 C          62.9937   84.9596   12.0689 C.3     1  UNL1        0.0262
     20 H          62.3470   81.7954   11.9684 H       1  UNL1        0.1232
     21 S          66.3655   92.5622   12.7701 S.O2    1  UNL1        0.1006
     22 O          67.6935   92.7418   13.4441 O.2     1  UNL1       -0.1463
     23 O          65.0375   92.3826   12.0962 O.2     1  UNL1       -0.1463
     24 C          67.0054   92.8251   11.4392 C.ar    1  UNL1        0.1291
     25 C          67.7928   91.7447   10.7591 C.ar    1  UNL1        0.0204
     26 C          68.4327   92.0076    9.4281 C.ar    1  UNL1        0.0014
     27 C          68.2852   93.3509    8.7773 C.ar    1  UNL1        0.0001
     28 C          67.4978   94.4314    9.4574 C.ar    1  UNL1        0.0013
     29 C          67.3503   95.7748    8.8066 C.ar    1  UNL1        0.0000
     30 C          66.5629   96.8552    9.4868 C.ar    1  UNL1        0.0000
     31 C          65.9230   96.5923   10.8177 C.ar    1  UNL1        0.0000
     32 C          66.0705   95.2490   11.4685 C.ar    1  UNL1        0.0013
     33 C          66.8579   94.1685   10.7884 C.ar    1  UNL1        0.0191
@<TRIPOS>BOND
     1    10    11    2
     2    11    12   am
     3    12     1    1
     4     1     2   ar
     5     2     3   ar
     6     3     4   ar
     7     4     5   ar
     8     5     6   ar
     9     6     7   ar
    10     7    21    1
    11    21    22    2
    12    21    23    2
    13    21    24    1
    14    24    25   ar
    15    25    26   ar
    16    26    27   ar
    17    27    28   ar
    18    28    29   ar
    19    29    30   ar
    20    30    31   ar
    21    31    32   ar
    22    32    33   ar
    23     7     8   ar
    24     8     9   ar
    25    11    14    1
    26    14    15    1
    27    15    16    1
    28    16    17    1
    29    17    18    1
    30    18    19    1
    31     9     1   ar
    32    19    14    1
    33     8     4   ar
    34    33    24   ar
    35    33    28   ar
    36    12    13    1
    37    17    20    1
@<TRIPOS>MOLECULE
*****
 33 37 0 0 0
SMALL
GASTEIGER

@<TRIPOS>ATOM
      1 C          62.8513   90.1016   11.2678 C.ar    1  UNL1        0.0519
      2 C          62.0142   90.8834   10.2992 C.ar    1  UNL1        0.0148
      3 C          61.0830   90.1685    9.3654 C.ar    1  UNL1        0.0044
      4 C          60.9889   88.6719    9.4003 C.ar    1  UNL1        0.0402
      5 C          60.1673   87.6991    8.6075 C.ar    1  UNL1        0.1235
      6 N          60.4967   86.3161    9.0861 N.ar    1  UNL1       -0.1468
      7 N          61.5218   86.4342   10.1747 N.ar    1  UNL1       -0.1274
      8 C          61.8260   87.8901   10.3689 C.ar    1  UNL1        0.1053
      9 C          62.7572   88.6050   11.3026 C.ar    1  UNL1        0.0354
     10 O          62.5338   89.7881   14.2344 O.2     1  UNL1       -0.2748
     11 C          63.6237   90.6599   13.6847 C.2     1  UNL1        0.2257
     12 N          63.7824   90.8166   12.2014 N.am    1  UNL1       -0.2839
     13 H          64.4977   91.3888   11.8407 H       1  UNL1        0.1549
     14 C          64.5549   91.3749   14.6184 C.3     1  UNL1        0.0796
     15 C          64.1449   91.6273   16.0390 C.3     1  UNL1        0.0262
     16 C          65.0760   92.3423   16.9727 C.3     1  UNL1        0.0691
     17 N          66.4172   92.8049   16.4857 N.3     1  UNL1       -0.2974
     18 C          66.8272   92.5526   15.0650 C.3     1  UNL1        0.0691
     19 C          65.8961   91.8376   14.1314 C.3     1  UNL1        0.0262
     20 H          67.1162   92.3566   17.0779 H       1  UNL1        0.1232
     21 S          62.1350   85.2962   10.9356 S.O2    1  UNL1        0.1006
     22 O          62.9503   84.9301    9.7309 O.2     1  UNL1       -0.1463
     23 O          61.3197   85.6623   12.1403 O.2     1  UNL1       -0.1463
     24 C          62.7482   84.1582   11.6964 C.ar    1  UNL1        0.1291
     25 C          62.6247   82.7562   11.1776 C.ar    1  UNL1        0.0204
     26 C          63.2380   81.6182   11.9384 C.ar    1  UNL1        0.0014
     27 C          63.9747   81.8821   13.2181 C.ar    1  UNL1        0.0001
     28 C          64.0982   83.2841   13.7369 C.ar    1  UNL1        0.0013
     29 C          64.8350   83.5481   15.0166 C.ar    1  UNL1        0.0000
     30 C          64.9585   84.9500   15.5354 C.ar    1  UNL1        0.0000
     31 C          64.3452   86.0881   14.7745 C.ar    1  UNL1        0.0000
     32 C          63.6085   85.8241   13.4949 C.ar    1  UNL1        0.0013
     33 C          63.4850   84.4222   12.9761 C.ar    1  UNL1        0.0191
@<TRIPOS>BOND
     1    10    11    2
     2    11    12   am
     3    12     1    1
     4     1     2   ar
     5     2     3   ar
     6     3     4   ar
     7     4     5   ar
     8     5     6   ar
     9     6     7   ar
    10     7    21    1
    11    21    22    2
    12    21    23    2
    13    21    24    1
    14    24    25   ar
    15    25    26   ar
    16    26    27   ar
    17    27    28   ar
    18    28    29   ar
    19    29    30   ar
    20    30    31   ar
    21    31    32   ar
    22    32    33   ar
    23     7     8   ar
    24     8     9   ar
    25    11    14    1
    26    14    15    1
    27    15    16    1
    28    16    17    1
    29    17    18    1
    30    18    19    1
    31     9     1   ar
    32    19    14    1
    33     8     4   ar
    34    33    24   ar
    35    33    28   ar
    36    12    13    1
    37    17    20    1
@<TRIPOS>MOLECULE
*****
 33 37 0 0 0
SMALL
GASTEIGER

@<TRIPOS>ATOM
      1 C          63.1031   89.3144   13.2255 C.ar    1  UNL1        0.0519
      2 C          62.7693   89.2823   14.6875 C.ar    1  UNL1        0.0148
      3 C          63.4703   90.2076   15.6374 C.ar    1  UNL1        0.0044
      4 C          64.5052   91.1651   15.1252 C.ar    1  UNL1        0.0402
      5 C          65.3552   92.1890   15.8173 C.ar    1  UNL1        0.1235
      6 N          66.2143   92.8539   14.7830 N.ar    1  UNL1       -0.1468
      7 N          65.8953   92.2410   13.4517 N.ar    1  UNL1       -0.1274
      8 C          64.8390   91.1972   13.6632 C.ar    1  UNL1        0.1053
      9 C          64.1380   90.2718   12.7133 C.ar    1  UNL1        0.0354
     10 O          62.7344   90.1075   10.3558 O.2     1  UNL1       -0.2748
     11 C          62.2177   88.7855   10.8409 C.2     1  UNL1        0.2257
     12 N          62.4020   88.3890   12.2757 N.am    1  UNL1       -0.2839
     13 H          62.0629   87.5213   12.5941 H       1  UNL1        0.1549
     14 C          61.5166   87.8600    9.8911 C.3     1  UNL1        0.0796
     15 C          62.2377   86.6675    9.3363 C.3     1  UNL1        0.0262
     16 C          61.5367   85.7420    8.3865 C.3     1  UNL1        0.0691
     17 N          60.1144   86.0091    7.9916 N.3     1  UNL1       -0.2974
     18 C          59.3933   87.2017    8.5464 C.3     1  UNL1        0.0691
     19 C          60.0943   88.1271    9.4962 C.3     1  UNL1        0.0262
     20 H          59.5746   85.1868    8.2613 H       1  UNL1        0.1232
     21 S          66.5225   92.6074   12.1393 S.O2    1  UNL1        0.1006
     22 O          67.8847   92.4734   12.7528 O.2     1  UNL1       -0.1463
     23 O          65.1603   92.7413   11.5257 O.2     1  UNL1       -0.1463
     24 C          67.1497   92.9738   10.8269 C.ar    1  UNL1        0.1291
     25 C          68.1367   92.0463   10.1824 C.ar    1  UNL1        0.0204
     26 C          68.7638   92.4127    8.8700 C.ar    1  UNL1        0.0014
     27 C          68.4040   93.7067    8.2021 C.ar    1  UNL1        0.0001
     28 C          67.4170   94.6343    8.8466 C.ar    1  UNL1        0.0013
     29 C          67.0571   95.9283    8.1787 C.ar    1  UNL1        0.0000
     30 C          66.0701   96.8558    8.8232 C.ar    1  UNL1        0.0000
     31 C          65.4429   96.4894   10.1356 C.ar    1  UNL1        0.0000
     32 C          65.8028   95.1954   10.8035 C.ar    1  UNL1        0.0013
     33 C          66.7898   94.2679   10.1590 C.ar    1  UNL1        0.0191
@<TRIPOS>BOND
     1    10    11    2
     2    11    12   am
     3    12     1    1
     4     1     2   ar
     5     2     3   ar
     6     3     4   ar
     7     4     5   ar
     8     5     6   ar
     9     6     7   ar
    10     7    21    1
    11    21    22    2
    12    21    23    2
    13    21    24    1
    14    24    25   ar
    15    25    26   ar
    16    26    27   ar
    17    27    28   ar
    18    28    29   ar
    19    29    30   ar
    20    30    31   ar
    21    31    32   ar
    22    32    33   ar
    23     7     8   ar
    24     8     9   ar
    25    11    14    1
    26    14    15    1
    27    15    16    1
    28    16    17    1
    29    17    18    1
    30    18    19    1
    31     9     1   ar
    32    19    14    1
    33     8     4   ar
    34    33    24   ar
    35    33    28   ar
    36    12    13    1
    37    17    20    1
@<TRIPOS>MOLECULE
*****
 33 37 0 0 0
SMALL
GASTEIGER

@<TRIPOS>ATOM
      1 C          63.4743   89.3839   13.0506 C.ar    1  UNL1        0.0519
      2 C          63.2792   88.9204   14.4638 C.ar    1  UNL1        0.0148
      3 C          63.8412   89.7218   15.6004 C.ar    1  UNL1        0.0044
      4 C          64.5983   90.9868   15.3238 C.ar    1  UNL1        0.0402
      5 C          65.2624   91.9783   16.2326 C.ar    1  UNL1        0.1235
      6 N          65.8679   93.0545   15.3811 N.ar    1  UNL1       -0.1468
      7 N          65.5781   92.7283   13.9460 N.ar    1  UNL1       -0.1274
      8 C          64.7935   91.4503   13.9106 C.ar    1  UNL1        0.1053
      9 C          64.2315   90.6489   12.7740 C.ar    1  UNL1        0.0354
     10 O          61.0718   90.3808   11.5558 O.2     1  UNL1       -0.2748
     11 C          61.7110   89.0808   11.1668 C.2     1  UNL1        0.2257
     12 N          62.9123   88.5824   11.9142 N.am    1  UNL1       -0.2839
     13 H          63.3318   87.7292   11.6588 H       1  UNL1        0.1549
     14 C          61.1490   88.2792   10.0302 C.3     1  UNL1        0.0796
     15 C          61.5136   86.8319    9.8808 C.3     1  UNL1        0.0262
     16 C          60.9516   86.0303    8.7444 C.3     1  UNL1        0.0691
     17 N          60.0250   86.6761    7.7572 N.3     1  UNL1       -0.2974
     18 C          59.6605   88.1234    7.9066 C.3     1  UNL1        0.0691
     19 C          60.2224   88.9250    9.0431 C.3     1  UNL1        0.0262
     20 H          59.1525   86.1484    7.7836 H       1  UNL1        0.1232
     21 S          65.9990   93.5378   12.7554 S.O2    1  UNL1        0.1006
     22 O          67.1902   94.0387   13.5171 O.2     1  UNL1       -0.1463
     23 O          64.8078   93.0369   11.9937 O.2     1  UNL1       -0.1463
     24 C          66.4199   94.3473   11.5648 C.ar    1  UNL1        0.1291
     25 C          66.0644   95.8022   11.4835 C.ar    1  UNL1        0.0204
     26 C          66.4853   96.6117   10.2929 C.ar    1  UNL1        0.0014
     27 C          67.2618   95.9663    9.1836 C.ar    1  UNL1        0.0001
     28 C          67.6174   94.5113    9.2650 C.ar    1  UNL1        0.0013
     29 C          68.3939   93.8659    8.1558 C.ar    1  UNL1        0.0000
     30 C          68.7495   92.4109    8.2372 C.ar    1  UNL1        0.0000
     31 C          68.3286   91.6014    9.4278 C.ar    1  UNL1        0.0000
     32 C          67.5521   92.2468   10.5370 C.ar    1  UNL1        0.0013
     33 C          67.1965   93.7018   10.4556 C.ar    1  UNL1        0.0191
@<TRIPOS>BOND
     1    10    11    2
     2    11    12   am
     3    12     1    1
     4     1     2   ar
     5     2     3   ar
     6     3     4   ar
     7     4     5   ar
     8     5     6   ar
     9     6     7   ar
    10     7    21    1
    11    21    22    2
    12    21    23    2
    13    21    24    1
    14    24    25   ar
    15    25    26   ar
    16    26    27   ar
    17    27    28   ar
    18    28    29   ar
    19    29    30   ar
    20    30    31   ar
    21    31    32   ar
    22    32    33   ar
    23     7     8   ar
    24     8     9   ar
    25    11    14    1
    26    14    15    1
    27    15    16    1
    28    16    17    1
    29    17    18    1
    30    18    19    1
    31     9     1   ar
    32    19    14    1
    33     8     4   ar
    34    33    24   ar
    35    33    28   ar
    36    12    13    1
    37    17    20    1
@<TRIPOS>MOLECULE
*****
 33 37 0 0 0
SMALL
GASTEIGER

@<TRIPOS>ATOM
      1 C          64.4234   86.3343   14.4550 C.ar    1  UNL1        0.0519
      2 C          65.0464   85.0869   15.0081 C.ar    1  UNL1        0.0148
      3 C          64.8415   83.7741   14.3121 C.ar    1  UNL1        0.0044
      4 C          64.0136   83.7087   13.0630 C.ar    1  UNL1        0.0402
      5 C          63.6390   82.5664   12.1658 C.ar    1  UNL1        0.1235
      6 N          62.7846   83.1079   11.0582 N.ar    1  UNL1       -0.1468
      7 N          62.6311   84.5848   11.2709 N.ar    1  UNL1       -0.1274
      8 C          63.3907   84.9561   12.5099 C.ar    1  UNL1        0.1053
      9 C          63.5956   86.2689   13.2059 C.ar    1  UNL1        0.0354
     10 O          64.0488   88.9037   12.9522 O.2     1  UNL1       -0.2748
     11 C          64.4411   88.9318   14.3998 C.2     1  UNL1        0.2257
     12 N          64.6284   87.6471   15.1511 N.am    1  UNL1       -0.2839
     13 H          64.8858   87.6656   16.1012 H       1  UNL1        0.1549
     14 C          64.6461   90.2446   15.0960 C.3     1  UNL1        0.0796
     15 C          63.6966   90.6787   16.1730 C.3     1  UNL1        0.0262
     16 C          63.9015   91.9914   16.8692 C.3     1  UNL1        0.0691
     17 N          65.0560   92.8701   16.4883 N.3     1  UNL1       -0.2974
     18 C          66.0055   92.4360   15.4112 C.3     1  UNL1        0.0691
     19 C          65.8006   91.1233   14.7150 C.3     1  UNL1        0.0262
     20 H          65.6116   93.0086   17.3324 H       1  UNL1        0.1232
     21 S          61.8543   85.5253   10.3978 S.O2    1  UNL1        0.1006
     22 O          61.0181   85.9284   11.5760 O.2     1  UNL1       -0.1463
     23 O          62.6906   85.1222    9.2196 O.2     1  UNL1       -0.1463
     24 C          61.0776   86.4657    9.5248 C.ar    1  UNL1        0.1291
     25 C          60.4988   85.9808    8.2287 C.ar    1  UNL1        0.0204
     26 C          59.7221   86.9213    7.3556 C.ar    1  UNL1        0.0014
     27 C          59.5242   88.3467    7.7786 C.ar    1  UNL1        0.0001
     28 C          60.1030   88.8317    9.0748 C.ar    1  UNL1        0.0013
     29 C          59.9050   90.2571    9.4977 C.ar    1  UNL1        0.0000
     30 C          60.4838   90.7421   10.7938 C.ar    1  UNL1        0.0000
     31 C          61.2605   89.8016   11.6669 C.ar    1  UNL1        0.0000
     32 C          61.4585   88.3762   11.2439 C.ar    1  UNL1        0.0013
     33 C          60.8797   87.8912    9.9478 C.ar    1  UNL1        0.0191
@<TRIPOS>BOND
     1    10    11    2
     2    11    12   am
     3    12     1    1
     4     1     2   ar
     5     2     3   ar
     6     3     4   ar
     7     4     5   ar
     8     5     6   ar
     9     6     7   ar
    10     7    21    1
    11    21    22    2
    12    21    23    2
    13    21    24    1
    14    24    25   ar
    15    25    26   ar
    16    26    27   ar
    17    27    28   ar
    18    28    29   ar
    19    29    30   ar
    20    30    31   ar
    21    31    32   ar
    22    32    33   ar
    23     7     8   ar
    24     8     9   ar
    25    11    14    1
    26    14    15    1
    27    15    16    1
    28    16    17    1
    29    17    18    1
    30    18    19    1
    31     9     1   ar
    32    19    14    1
    33     8     4   ar
    34    33    24   ar
    35    33    28   ar
    36    12    13    1
    37    17    20    1
