@<TRIPOS>MOLECULE
*****
 25 27 0 0 0
SMALL
GASTEIGER

@<TRIPOS>ATOM
      1 C          64.6359   86.5093   15.1674 C.3     1  UNL1        0.0517
      2 C          63.9676   87.0666   13.9457 C.ar    1  UNL1        0.0586
      3 C          63.9266   88.5115   13.5448 C.ar    1  UNL1       -0.0002
      4 C          63.1565   88.6148   12.2617 C.ar    1  UNL1        0.0333
      5 C          62.7952   89.7880   11.3997 C.ar    1  UNL1        0.0044
      6 C          61.9989   89.5802   10.1456 C.ar    1  UNL1        0.0208
      7 C          61.5641   88.1992    9.7535 C.ar    1  UNL1        0.1006
      8 N          61.9254   87.0260   10.6155 N.ar    1  UNL1       -0.2252
      9 C          62.7216   87.2338   11.8695 C.ar    1  UNL1        0.1630
     10 N          63.2229   86.2770   12.9103 N.ar    1  UNL1       -0.1964
     11 S          63.0158   84.7914   12.9149 S.O2    1  UNL1        0.0869
     12 O          62.1205   84.9199   14.1116 O.2     1  UNL1       -0.1475
     13 O          63.9111   84.6629   11.7184 O.2     1  UNL1       -0.1475
     14 C          62.8087   83.3057   12.9196 C.ar    1  UNL1        0.1301
     15 C          62.4020   82.6092   14.1843 C.ar    1  UNL1        0.0228
     16 C          62.1949   81.1236   14.1891 C.ar    1  UNL1        0.0334
     17 C          62.3944   80.3345   12.9291 C.ar    1  UNL1        0.1675
     18 F          62.1873   78.8489   12.9338 F       1  UNL1       -0.2018
     19 C          62.8011   81.0311   11.6644 C.ar    1  UNL1        0.1687
     20 F          63.0006   80.2420   10.4044 F       1  UNL1       -0.2018
     21 C          63.0082   82.5166   11.6597 C.ar    1  UNL1        0.0523
     22 C          64.5467   89.6527   14.2952 C.3     1  UNL1        0.0692
     23 C          63.7782   90.3393   15.3853 C.2     1  UNL1        0.0548
     24 O          62.5534   89.6927   15.9612 O.co2   1  UNL1       -0.5488
     25 O          64.2347   91.6724   15.8995 O.co2   1  UNL1       -0.5488
@<TRIPOS>UNITY_ATOM_ATTR
24 1
charge -1
@<TRIPOS>BOND
     1     1     2    1
     2     2     3   ar
     3     3    22    1
     4    22    23    1
     5    23    24   ar
     6    23    25   ar
     7     3     4   ar
     8     4     5   ar
     9     5     6   ar
    10     6     7   ar
    11     7     8   ar
    12     8     9   ar
    13     9    10   ar
    14    10    11    1
    15    11    12    2
    16    11    13    2
    17    11    14    1
    18    14    15   ar
    19    15    16   ar
    20    16    17   ar
    21    17    18    1
    22    17    19   ar
    23    19    20    1
    24    19    21   ar
    25    10     2   ar
    26    21    14   ar
    27     9     4   ar
@<TRIPOS>MOLECULE
*****
 25 27 0 0 0
SMALL
GASTEIGER

@<TRIPOS>ATOM
      1 C          61.3555   86.2765    9.5749 C.3     1  UNL1        0.0517
      2 C          62.0712   86.9657   10.6986 C.ar    1  UNL1        0.0586
      3 C          62.3182   88.4407   10.8135 C.ar    1  UNL1       -0.0002
      4 C          63.0652   88.6876   12.0907 C.ar    1  UNL1        0.0333
      5 C          63.5776   89.9457   12.7266 C.ar    1  UNL1        0.0044
      6 C          64.3048   89.8813   14.0369 C.ar    1  UNL1        0.0208
      7 C          64.5195   88.5588   14.7113 C.ar    1  UNL1        0.1006
      8 N          64.0071   87.3007   14.0754 N.ar    1  UNL1       -0.2252
      9 C          63.2799   87.3650   12.7651 C.ar    1  UNL1        0.1630
     10 N          62.6656   86.3009   11.9047 N.ar    1  UNL1       -0.1964
     11 S          62.6486   84.8301   12.1989 S.O2    1  UNL1        0.0869
     12 O          63.3318   84.5606   10.8910 O.2     1  UNL1       -0.1475
     13 O          61.9655   85.0995   13.5067 O.2     1  UNL1       -0.1475
     14 C          62.6317   83.3593   12.4930 C.ar    1  UNL1        0.1301
     15 C          62.4321   82.8780   13.8996 C.ar    1  UNL1        0.0228
     16 C          62.4152   81.4072   14.1938 C.ar    1  UNL1        0.0334
     17 C          62.5979   80.4177   13.0814 C.ar    1  UNL1        0.1675
     18 F          62.5810   78.9470   13.3754 F       1  UNL1       -0.2018
     19 C          62.7976   80.8991   11.6748 C.ar    1  UNL1        0.1687
     20 F          62.9804   79.9096   10.5624 F       1  UNL1       -0.2018
     21 C          62.8145   82.3698   11.3806 C.ar    1  UNL1        0.0523
     22 C          61.8928   89.4856    9.8249 C.3     1  UNL1        0.0692
     23 C          60.4345   89.7549    9.5990 C.2     1  UNL1        0.0548
     24 O          59.7333   89.1470    8.4206 O.co2   1  UNL1       -0.5488
     25 O          59.6775   90.6321   10.5516 O.co2   1  UNL1       -0.5488
@<TRIPOS>UNITY_ATOM_ATTR
24 1
charge -1
@<TRIPOS>BOND
     1     1     2    1
     2     2     3   ar
     3     3    22    1
     4    22    23    1
     5    23    24   ar
     6    23    25   ar
     7     3     4   ar
     8     4     5   ar
     9     5     6   ar
    10     6     7   ar
    11     7     8   ar
    12     8     9   ar
    13     9    10   ar
    14    10    11    1
    15    11    12    2
    16    11    13    2
    17    11    14    1
    18    14    15   ar
    19    15    16   ar
    20    16    17   ar
    21    17    18    1
    22    17    19   ar
    23    19    20    1
    24    19    21   ar
    25    10     2   ar
    26    21    14   ar
    27     9     4   ar
@<TRIPOS>MOLECULE
*****
 25 27 0 0 0
SMALL
GASTEIGER

@<TRIPOS>ATOM
      1 C          64.6992   91.8615   10.5229 C.3     1  UNL1        0.0517
      2 C          64.3784   91.4748   11.9363 C.ar    1  UNL1        0.0586
      3 C          64.9827   92.0719   13.1726 C.ar    1  UNL1       -0.0002
      4 C          64.3748   91.3893   14.3619 C.ar    1  UNL1        0.0333
      5 C          64.5870   91.5640   15.8365 C.ar    1  UNL1        0.0044
      6 C          63.8192   90.7196   16.8098 C.ar    1  UNL1        0.0208
      7 C          62.8392   89.7005   16.3086 C.ar    1  UNL1        0.1006
      8 N          62.6271   89.5259   14.8340 N.ar    1  UNL1       -0.2252
      9 C          63.3948   90.3702   13.8607 C.ar    1  UNL1        0.1630
     10 N          63.3971   90.4231   12.3616 N.ar    1  UNL1       -0.1964
     11 S          62.5642   89.5734   11.4482 S.O2    1  UNL1        0.0869
     12 O          63.2791   88.3482   11.9360 O.2     1  UNL1       -0.1475
     13 O          61.8494   90.7984   10.9604 O.2     1  UNL1       -0.1475
     14 C          61.7314   88.7236   10.5348 C.ar    1  UNL1        0.1301
     15 C          61.7417   87.2309   10.6826 C.ar    1  UNL1        0.0228
     16 C          60.9089   86.3810    9.7692 C.ar    1  UNL1        0.0334
     17 C          60.0658   87.0238    8.7081 C.ar    1  UNL1        0.1675
     18 F          59.2329   86.1741    7.7948 F       1  UNL1       -0.2018
     19 C          60.0555   88.5166    8.5604 C.ar    1  UNL1        0.1687
     20 F          59.2123   89.1594    7.4993 F       1  UNL1       -0.2018
     21 C          60.8882   89.3664    9.4737 C.ar    1  UNL1        0.0523
     22 C          66.0138   93.1606   13.2125 C.3     1  UNL1        0.0692
     23 C          67.3152   92.9353   13.9238 C.2     1  UNL1        0.0548
     24 O          68.3385   92.0074   13.3393 O.co2   1  UNL1       -0.5488
     25 O          67.5931   93.6380   15.2196 O.co2   1  UNL1       -0.5488
@<TRIPOS>UNITY_ATOM_ATTR
24 1
charge -1
@<TRIPOS>BOND
     1     1     2    1
     2     2     3   ar
     3     3    22    1
     4    22    23    1
     5    23    24   ar
     6    23    25   ar
     7     3     4   ar
     8     4     5   ar
     9     5     6   ar
    10     6     7   ar
    11     7     8   ar
    12     8     9   ar
    13     9    10   ar
    14    10    11    1
    15    11    12    2
    16    11    13    2
    17    11    14    1
    18    14    15   ar
    19    15    16   ar
    20    16    17   ar
    21    17    18    1
    22    17    19   ar
    23    19    20    1
    24    19    21   ar
    25    10     2   ar
    26    21    14   ar
    27     9     4   ar
@<TRIPOS>MOLECULE
*****
 25 27 0 0 0
SMALL
GASTEIGER

@<TRIPOS>ATOM
      1 C          64.3943   87.0595   14.0702 C.3     1  UNL1        0.0517
      2 C          63.5163   87.4805   12.9292 C.ar    1  UNL1        0.0586
      3 C          63.2488   88.8916   12.4966 C.ar    1  UNL1       -0.0002
      4 C          62.3189   88.8475   11.3205 C.ar    1  UNL1        0.0333
      5 C          61.7121   89.9312   10.4795 C.ar    1  UNL1        0.0044
      6 C          60.7982   89.5766    9.3442 C.ar    1  UNL1        0.0208
      7 C          60.4910   88.1382    9.0499 C.ar    1  UNL1        0.1006
      8 N          61.0978   87.0544    9.8909 N.ar    1  UNL1       -0.2252
      9 C          62.0117   87.4091   11.0261 C.ar    1  UNL1        0.1630
     10 N          62.7518   86.5642   12.0204 N.ar    1  UNL1       -0.1964
     11 S          62.7309   85.0661   12.0931 S.O2    1  UNL1        0.0869
     12 O          63.2390   84.9907   10.6838 O.2     1  UNL1       -0.1475
     13 O          62.2228   85.1415   13.5023 O.2     1  UNL1       -0.1475
     14 C          62.7101   83.5680   12.1657 C.ar    1  UNL1        0.1301
     15 C          63.2234   82.7542   11.0149 C.ar    1  UNL1        0.0228
     16 C          63.2026   81.2561   11.0874 C.ar    1  UNL1        0.0334
     17 C          62.6685   80.5718   12.3107 C.ar    1  UNL1        0.1675
     18 F          62.6476   79.0737   12.3833 F       1  UNL1       -0.2018
     19 C          62.1551   81.3856   13.4614 C.ar    1  UNL1        0.1687
     20 F          61.6209   80.7013   14.6847 F       1  UNL1       -0.2018
     21 C          62.1759   82.8837   13.3889 C.ar    1  UNL1        0.0523
     22 C          63.8122   90.1295   13.1291 C.3     1  UNL1        0.0692
     23 C          63.5111   90.4417   14.5651 C.2     1  UNL1        0.0548
     24 O          64.3265   91.4662   15.2968 O.co2   1  UNL1       -0.5488
     25 O          62.3946   89.7293   15.2693 O.co2   1  UNL1       -0.5488
@<TRIPOS>UNITY_ATOM_ATTR
24 1
charge -1
@<TRIPOS>BOND
     1     1     2    1
     2     2     3   ar
     3     3    22    1
     4    22    23    1
     5    23    24   ar
     6    23    25   ar
     7     3     4   ar
     8     4     5   ar
     9     5     6   ar
    10     6     7   ar
    11     7     8   ar
    12     8     9   ar
    13     9    10   ar
    14    10    11    1
    15    11    12    2
    16    11    13    2
    17    11    14    1
    18    14    15   ar
    19    15    16   ar
    20    16    17   ar
    21    17    18    1
    22    17    19   ar
    23    19    20    1
    24    19    21   ar
    25    10     2   ar
    26    21    14   ar
    27     9     4   ar
@<TRIPOS>MOLECULE
*****
 25 27 0 0 0
SMALL
GASTEIGER

@<TRIPOS>ATOM
      1 C          62.3962   82.7385   10.3922 C.3     1  UNL1        0.0517
      2 C          62.9402   83.6455   11.4559 C.ar    1  UNL1        0.0586
      3 C          63.7954   83.2300   12.6160 C.ar    1  UNL1       -0.0002
      4 C          64.1083   84.4549   13.4234 C.ar    1  UNL1        0.0333
      5 C          64.9103   84.6541   14.6752 C.ar    1  UNL1        0.0044
      6 C          65.0504   86.0258   15.2658 C.ar    1  UNL1        0.0208
      7 C          64.3885   87.1982   14.6046 C.ar    1  UNL1        0.1006
      8 N          63.5864   86.9990   13.3529 N.ar    1  UNL1       -0.2252
      9 C          63.4463   85.6274   12.7622 C.ar    1  UNL1        0.1630
     10 N          62.7244   85.1271   11.5463 N.ar    1  UNL1       -0.1964
     11 S          61.9268   85.9620   10.5888 S.O2    1  UNL1        0.0869
     12 O          61.0118   86.3688   11.7056 O.2     1  UNL1       -0.1475
     13 O          62.8416   85.5552    9.4719 O.2     1  UNL1       -0.1475
     14 C          61.1291   86.7969    9.6313 C.ar    1  UNL1        0.1301
     15 C          60.5220   86.1669    8.4129 C.ar    1  UNL1        0.0228
     16 C          59.7243   87.0017    7.4554 C.ar    1  UNL1        0.0334
     17 C          59.5336   88.4665    7.7164 C.ar    1  UNL1        0.1675
     18 F          58.7360   89.3013    6.7590 F       1  UNL1       -0.2018
     19 C          60.1407   89.0964    8.9349 C.ar    1  UNL1        0.1687
     20 F          59.9500   90.5611    9.1959 F       1  UNL1       -0.2018
     21 C          60.9384   88.2616    9.8923 C.ar    1  UNL1        0.0523
     22 C          64.2569   81.8347   12.9161 C.3     1  UNL1        0.0692
     23 C          63.2540   80.7642   13.2299 C.2     1  UNL1        0.0548
     24 O          62.7323   80.6117   14.6280 O.co2   1  UNL1       -0.5488
     25 O          62.7728   79.8463   12.1456 O.co2   1  UNL1       -0.5488
@<TRIPOS>UNITY_ATOM_ATTR
24 1
charge -1
@<TRIPOS>BOND
     1     1     2    1
     2     2     3   ar
     3     3    22    1
     4    22    23    1
     5    23    24   ar
     6    23    25   ar
     7     3     4   ar
     8     4     5   ar
     9     5     6   ar
    10     6     7   ar
    11     7     8   ar
    12     8     9   ar
    13     9    10   ar
    14    10    11    1
    15    11    12    2
    16    11    13    2
    17    11    14    1
    18    14    15   ar
    19    15    16   ar
    20    16    17   ar
    21    17    18    1
    22    17    19   ar
    23    19    20    1
    24    19    21   ar
    25    10     2   ar
    26    21    14   ar
    27     9     4   ar
@<TRIPOS>MOLECULE
*****
 25 27 0 0 0
SMALL
GASTEIGER

@<TRIPOS>ATOM
      1 C          64.7219   91.9490   10.4103 C.3     1  UNL1        0.0517
      2 C          64.4175   91.5655   11.8282 C.ar    1  UNL1        0.0586
      3 C          65.0521   92.1500   13.0553 C.ar    1  UNL1       -0.0002
      4 C          64.4519   91.4760   14.2534 C.ar    1  UNL1        0.0333
      5 C          64.6910   91.6445   15.7246 C.ar    1  UNL1        0.0044
      6 C          63.9246   90.8120   16.7091 C.ar    1  UNL1        0.0208
      7 C          62.9191   89.8109   16.2226 C.ar    1  UNL1        0.1006
      8 N          62.6799   89.6424   14.7514 N.ar    1  UNL1       -0.2252
      9 C          63.4463   90.4750   13.7668 C.ar    1  UNL1        0.1630
     10 N          63.4251   90.5303   12.2680 N.ar    1  UNL1       -0.1964
     11 S          62.5628   89.6967   11.3671 S.O2    1  UNL1        0.0869
     12 O          61.8649   90.9354   10.8890 O.2     1  UNL1       -0.1475
     13 O          63.2607   88.4581   11.8451 O.2     1  UNL1       -0.1475
     14 C          61.7005   88.8632   10.4661 C.ar    1  UNL1        0.1301
     15 C          60.7062   89.5239    9.5579 C.ar    1  UNL1        0.0228
     16 C          59.8438   88.6905    8.6570 C.ar    1  UNL1        0.0334
     17 C          59.9757   87.1963    8.6642 C.ar    1  UNL1        0.1675
     18 F          59.1134   86.3628    7.7634 F       1  UNL1       -0.2018
     19 C          60.9700   86.5356    9.5725 C.ar    1  UNL1        0.1687
     20 F          61.1019   85.0415    9.5798 F       1  UNL1       -0.2018
     21 C          61.8323   87.3690   10.4734 C.ar    1  UNL1        0.0523
     22 C          66.1025   93.2206   13.0799 C.3     1  UNL1        0.0692
     23 C          66.4986   93.9121   11.8090 C.2     1  UNL1        0.0548
     24 O          65.8016   95.1734   11.3928 O.co2   1  UNL1       -0.5488
     25 O          67.5918   93.3422   10.9545 O.co2   1  UNL1       -0.5488
@<TRIPOS>UNITY_ATOM_ATTR
24 1
charge -1
@<TRIPOS>BOND
     1     1     2    1
     2     2     3   ar
     3     3    22    1
     4    22    23    1
     5    23    24   ar
     6    23    25   ar
     7     3     4   ar
     8     4     5   ar
     9     5     6   ar
    10     6     7   ar
    11     7     8   ar
    12     8     9   ar
    13     9    10   ar
    14    10    11    1
    15    11    12    2
    16    11    13    2
    17    11    14    1
    18    14    15   ar
    19    15    16   ar
    20    16    17   ar
    21    17    18    1
    22    17    19   ar
    23    19    20    1
    24    19    21   ar
    25    10     2   ar
    26    21    14   ar
    27     9     4   ar
@<TRIPOS>MOLECULE
*****
 25 27 0 0 0
SMALL
GASTEIGER

@<TRIPOS>ATOM
      1 C          60.9155   85.5467    8.4437 C.3     1  UNL1        0.0517
      2 C          61.3956   86.6907    9.2868 C.ar    1  UNL1        0.0586
      3 C          61.2350   88.1479    8.9696 C.ar    1  UNL1       -0.0002
      4 C          61.8606   88.9361   10.0820 C.ar    1  UNL1        0.0333
      5 C          62.0027   90.4119   10.3098 C.ar    1  UNL1        0.0044
      6 C          62.6921   90.9175   11.5423 C.ar    1  UNL1        0.0208
      7 C          63.2393   89.9474   12.5469 C.ar    1  UNL1        0.1006
      8 N          63.0973   88.4717   12.3191 N.ar    1  UNL1       -0.2252
      9 C          62.4079   87.9660   11.0866 C.ar    1  UNL1        0.1630
     10 N          62.1205   86.5783   10.5952 N.ar    1  UNL1       -0.1964
     11 S          62.4927   85.3021   11.2902 S.O2    1  UNL1        0.0869
     12 O          61.6755   85.7115   12.4795 O.2     1  UNL1       -0.1475
     13 O          63.3098   84.8927   10.1009 O.2     1  UNL1       -0.1475
     14 C          62.8648   84.0260   11.9852 C.ar    1  UNL1        0.1301
     15 C          62.6876   82.7114   11.2849 C.ar    1  UNL1        0.0228
     16 C          63.0597   81.4353   11.9799 C.ar    1  UNL1        0.0334
     17 C          63.6090   81.4737   13.3752 C.ar    1  UNL1        0.1675
     18 F          63.9811   80.1977   14.0702 F       1  UNL1       -0.2018
     19 C          63.7861   82.7884   14.0755 C.ar    1  UNL1        0.1687
     20 F          64.3353   82.8268   15.4708 F       1  UNL1       -0.2018
     21 C          63.4140   84.0644   13.3805 C.ar    1  UNL1        0.0523
     22 C          60.5661   88.7171    7.7536 C.3     1  UNL1        0.0692
     23 C          59.1102   88.4540    7.5061 C.2     1  UNL1        0.0548
     24 O          58.3321   89.3483    6.5869 O.co2   1  UNL1       -0.5488
     25 O          58.4323   87.2967    8.1779 O.co2   1  UNL1       -0.5488
@<TRIPOS>UNITY_ATOM_ATTR
24 1
charge -1
@<TRIPOS>BOND
     1     1     2    1
     2     2     3   ar
     3     3    22    1
     4    22    23    1
     5    23    24   ar
     6    23    25   ar
     7     3     4   ar
     8     4     5   ar
     9     5     6   ar
    10     6     7   ar
    11     7     8   ar
    12     8     9   ar
    13     9    10   ar
    14    10    11    1
    15    11    12    2
    16    11    13    2
    17    11    14    1
    18    14    15   ar
    19    15    16   ar
    20    16    17   ar
    21    17    18    1
    22    17    19   ar
    23    19    20    1
    24    19    21   ar
    25    10     2   ar
    26    21    14   ar
    27     9     4   ar
@<TRIPOS>MOLECULE
*****
 25 27 0 0 0
SMALL
GASTEIGER

@<TRIPOS>ATOM
      1 C          72.5502   73.9705   16.9629 C.3     1  UNL1        0.0517
      2 C          71.9438   73.1496   15.8636 C.ar    1  UNL1        0.0586
      3 C          71.6134   71.6881   15.9341 C.ar    1  UNL1       -0.0002
      4 C          71.0267   71.2813   14.6149 C.ar    1  UNL1        0.0333
      5 C          70.5177   69.9654   14.1059 C.ar    1  UNL1        0.0044
      6 C          69.9764   69.8595   12.7110 C.ar    1  UNL1        0.0208
      7 C          69.9442   71.0696   11.8251 C.ar    1  UNL1        0.1006
      8 N          70.4532   72.3855   12.3342 N.ar    1  UNL1       -0.2252
      9 C          70.9944   72.4914   13.7291 C.ar    1  UNL1        0.1630
     10 N          71.5612   73.6460   14.5008 N.ar    1  UNL1       -0.1964
     11 S          71.7179   75.0505   13.9980 S.O2    1  UNL1        0.0869
     12 O          73.0369   74.6839   13.3849 O.2     1  UNL1       -0.1475
     13 O          70.3990   75.4172   14.6110 O.2     1  UNL1       -0.1475
     14 C          71.8746   76.4550   13.4951 C.ar    1  UNL1        0.1301
     15 C          71.6201   76.7670   12.0502 C.ar    1  UNL1        0.0228
     16 C          71.7769   78.1715   11.5472 C.ar    1  UNL1        0.0334
     17 C          72.1881   79.2640   12.4892 C.ar    1  UNL1        0.1675
     18 F          72.3449   80.6684   11.9864 F       1  UNL1       -0.2018
     19 C          72.4426   78.9519   13.9342 C.ar    1  UNL1        0.1687
     20 F          72.8539   80.0444   14.8762 F       1  UNL1       -0.2018
     21 C          72.2859   77.5475   14.4371 C.ar    1  UNL1        0.0523
     22 C          71.8315   70.7910   17.1163 C.3     1  UNL1        0.0692
     23 C          70.7238   70.5677   18.1029 C.2     1  UNL1        0.0548
     24 O          69.9826   71.7391   18.6761 O.co2   1  UNL1       -0.5488
     25 O          70.3574   69.1731   18.5162 O.co2   1  UNL1       -0.5488
@<TRIPOS>UNITY_ATOM_ATTR
24 1
charge -1
@<TRIPOS>BOND
     1     1     2    1
     2     2     3   ar
     3     3    22    1
     4    22    23    1
     5    23    24   ar
     6    23    25   ar
     7     3     4   ar
     8     4     5   ar
     9     5     6   ar
    10     6     7   ar
    11     7     8   ar
    12     8     9   ar
    13     9    10   ar
    14    10    11    1
    15    11    12    2
    16    11    13    2
    17    11    14    1
    18    14    15   ar
    19    15    16   ar
    20    16    17   ar
    21    17    18    1
    22    17    19   ar
    23    19    20    1
    24    19    21   ar
    25    10     2   ar
    26    21    14   ar
    27     9     4   ar
