@<TRIPOS>MOLECULE
*****
 41 46 0 0 0
SMALL
GASTEIGER

@<TRIPOS>ATOM
      1 C          59.9633   93.9365   -0.0114 C.ar    1  UNL1        0.0009
      2 C          59.7049   93.2755    1.3102 C.ar    1  UNL1        0.0002
      3 C          60.8503   92.7433    2.1193 C.ar    1  UNL1        0.0060
      4 C          62.2542   92.8720    1.6069 C.ar    1  UNL1        0.0707
      5 C          62.5126   93.5329    0.2853 C.ar    1  UNL1        0.0853
      6 N          63.7793   93.8021   -0.4717 N.2     1  UNL1       -0.2455
      7 C          63.4167   94.5006   -1.7486 C.2     1  UNL1        0.0774
      8 C          64.2514   95.0096   -2.8862 C.2     1  UNL1        0.0164
      9 C          63.5953   95.6812   -4.0560 C.2     1  UNL1       -0.0007
     10 C          62.1045   95.8438   -4.0882 C.2     1  UNL1       -0.0233
     11 C          61.2698   95.3348   -2.9506 C.3     1  UNL1        0.0536
     12 C          61.9259   94.6632   -1.7808 C.2     1  UNL1        0.0013
     13 C          61.3671   94.0652   -0.5238 C.ar    1  UNL1        0.0156
     14 C          58.9603   92.3986   -2.3838 C.3     1  UNL1        0.0326
     15 C          58.3163   93.6997   -2.0067 C.ar    1  UNL1       -0.0056
     16 C          58.8177   94.4687   -0.8205 C.ar    1  UNL1       -0.0025
     17 C          58.1738   95.7699   -0.4433 C.ar    1  UNL1       -0.0002
     18 C          57.0283   96.3020   -1.2524 C.ar    1  UNL1        0.0015
     19 C          56.5268   95.5330   -2.4387 C.ar    1  UNL1        0.0173
     20 C          57.1708   94.2319   -2.8158 C.ar    1  UNL1        0.0643
     21 N          56.6693   93.4629   -4.0021 N.ar    1  UNL1       -0.2570
     22 C          56.9282   93.9712   -5.3894 C.ar    1  UNL1        0.1850
     23 N          56.4267   93.2022   -6.5756 N.ar    1  UNL1       -0.2249
     24 C          55.6664   91.9249   -6.3746 C.ar    1  UNL1        0.0876
     25 C          55.1649   91.1560   -7.5608 C.ar    1  UNL1        0.0193
     26 C          54.4046   89.8786   -7.3597 C.ar    1  UNL1        0.0015
     27 C          54.1458   89.3703   -5.9724 C.ar    1  UNL1        0.0003
     28 C          54.6472   90.1393   -4.7861 C.ar    1  UNL1        0.0063
     29 C          55.4075   91.4166   -4.9873 C.ar    1  UNL1        0.0742
     30 C          55.9090   92.1856   -3.8010 C.ar    1  UNL1        0.2672
     31 O          55.6502   91.6772   -2.4137 O.2     1  UNL1       -0.2665
     32 C          63.3996   92.3398    2.4160 C.2     1  UNL1        0.2442
     33 N          64.8070   92.7222    2.0655 N.am    1  UNL1       -0.3253
     34 O          63.1376   91.4252    3.5757 O.2     1  UNL1       -0.2703
     35 H          64.9790   93.3224    1.3043 H       1  UNL1        0.1453
     36 H          65.5588   92.3728    2.5965 H       1  UNL1        0.1453
     37 C          64.4301   96.1902   -5.1936 C.3     1  UNL1        0.1069
     38 C          63.3765   95.7471   -6.1650 C.3     1  UNL1        0.0339
     39 C          65.4836   96.6334   -4.2223 C.3     1  UNL1        0.0339
     40 O          65.2648   96.6993   -6.3312 O.3     1  UNL1       -0.3827
     41 H          64.8024   96.5388   -7.1686 H       1  UNL1        0.2107
@<TRIPOS>BOND
     1    14    15    1
     2    15    16   ar
     3    16     1    1
     4     1     2   ar
     5     2     3   ar
     6     3     4   ar
     7     4    32    1
     8    32    33   am
     9    32    34    2
    10     4     5   ar
    11     5     6    2
    12     6     7    1
    13     7     8    2
    14     8     9    1
    15     9    37    1
    16    37    38    1
    17    37    39    1
    18    37    40    1
    19     9    10    2
    20    10    11    1
    21    11    12    1
    22    12    13    2
    23    16    17   ar
    24    17    18   ar
    25    18    19   ar
    26    19    20   ar
    27    20    21    1
    28    21    22   ar
    29    22    23   ar
    30    23    24   ar
    31    24    25   ar
    32    25    26   ar
    33    26    27   ar
    34    27    28   ar
    35    28    29   ar
    36    29    30   ar
    37    30    31    2
    38    20    15   ar
    39    30    21   ar
    40    13     1   ar
    41    29    24   ar
    42    13     5   ar
    43    12     7    1
    44    33    35    1
    45    33    36    1
    46    40    41    1
@<TRIPOS>MOLECULE
*****
 41 46 0 0 0
SMALL
GASTEIGER

@<TRIPOS>ATOM
      1 C          61.0239   87.3555    9.2352 C.ar    1  UNL1        0.0009
      2 C          60.4690   87.5957    7.8624 C.ar    1  UNL1        0.0002
      3 C          60.6122   86.5453    6.8012 C.ar    1  UNL1        0.0060
      4 C          61.3102   85.2547    7.1128 C.ar    1  UNL1        0.0707
      5 C          61.8650   85.0145    8.4855 C.ar    1  UNL1        0.0853
      6 N          62.5972   83.8493    9.0825 N.2     1  UNL1       -0.2455
      7 C          62.9066   84.1796   10.5126 C.2     1  UNL1        0.0774
      8 C          63.6109   83.4105   11.5907 C.2     1  UNL1        0.0164
      9 C          63.7743   84.0106   12.9556 C.2     1  UNL1       -0.0007
     10 C          63.2333   85.3799   13.2425 C.2     1  UNL1       -0.0233
     11 C          62.5289   86.1491   12.1645 C.3     1  UNL1        0.0536
     12 C          62.3656   85.5489   10.7995 C.2     1  UNL1        0.0013
     13 C          61.7219   86.0649    9.5467 C.ar    1  UNL1        0.0156
     14 C          63.4136   88.9495   10.1000 C.3     1  UNL1        0.0326
     15 C          62.0755   89.2029   10.7287 C.ar    1  UNL1       -0.0056
     16 C          60.8807   88.4060   10.2964 C.ar    1  UNL1       -0.0025
     17 C          59.5425   88.6593   10.9251 C.ar    1  UNL1       -0.0002
     18 C          59.3994   89.7098   11.9862 C.ar    1  UNL1        0.0015
     19 C          60.5943   90.5068   12.4186 C.ar    1  UNL1        0.0173
     20 C          61.9324   90.2534   11.7899 C.ar    1  UNL1        0.0643
     21 N          63.1273   91.0504   12.2223 N.ar    1  UNL1       -0.2570
     22 C          63.8414   91.9263   11.2361 C.ar    1  UNL1        0.1850
     23 N          65.0364   92.7233   11.6685 N.ar    1  UNL1       -0.2249
     24 C          65.5171   92.6444   13.0871 C.ar    1  UNL1        0.0876
     25 C          66.7120   93.4414   13.5195 C.ar    1  UNL1        0.0193
     26 C          67.1927   93.3624   14.9383 C.ar    1  UNL1        0.0015
     27 C          66.4786   92.4865   15.9245 C.ar    1  UNL1        0.0003
     28 C          65.2836   91.6895   15.4921 C.ar    1  UNL1        0.0063
     29 C          64.8030   91.7685   14.0734 C.ar    1  UNL1        0.0742
     30 C          63.6081   90.9715   13.6410 C.ar    1  UNL1        0.2672
     31 O          62.8939   90.0955   14.6273 O.2     1  UNL1       -0.2665
     32 C          61.4534   84.2043    6.0516 C.2     1  UNL1        0.2442
     33 N          62.6916   84.1559    5.2064 N.am    1  UNL1       -0.3253
     34 O          60.3583   83.2021    5.8356 O.2     1  UNL1       -0.2703
     35 H          63.4103   84.8136    5.3481 H       1  UNL1        0.1453
     36 H          62.7855   83.4665    4.5099 H       1  UNL1        0.1453
     37 C          64.4788   83.2414   14.0337 C.3     1  UNL1        0.1069
     38 C          65.1032   84.5111   14.5316 C.3     1  UNL1        0.0339
     39 C          63.8543   81.9718   13.5358 C.3     1  UNL1        0.0339
     40 O          65.1831   82.4723   15.1117 O.3     1  UNL1       -0.3827
     41 H          65.7156   83.0806   15.6477 H       1  UNL1        0.2107
@<TRIPOS>BOND
     1    14    15    1
     2    15    16   ar
     3    16     1    1
     4     1     2   ar
     5     2     3   ar
     6     3     4   ar
     7     4    32    1
     8    32    33   am
     9    32    34    2
    10     4     5   ar
    11     5     6    2
    12     6     7    1
    13     7     8    2
    14     8     9    1
    15     9    37    1
    16    37    38    1
    17    37    39    1
    18    37    40    1
    19     9    10    2
    20    10    11    1
    21    11    12    1
    22    12    13    2
    23    16    17   ar
    24    17    18   ar
    25    18    19   ar
    26    19    20   ar
    27    20    21    1
    28    21    22   ar
    29    22    23   ar
    30    23    24   ar
    31    24    25   ar
    32    25    26   ar
    33    26    27   ar
    34    27    28   ar
    35    28    29   ar
    36    29    30   ar
    37    30    31    2
    38    20    15   ar
    39    30    21   ar
    40    13     1   ar
    41    29    24   ar
    42    13     5   ar
    43    12     7    1
    44    33    35    1
    45    33    36    1
    46    40    41    1
@<TRIPOS>MOLECULE
*****
 41 46 0 0 0
SMALL
GASTEIGER

@<TRIPOS>ATOM
      1 C          63.4982   85.5152   14.8825 C.ar    1  UNL1        0.0009
      2 C          64.0749   84.4388   15.7536 C.ar    1  UNL1        0.0002
      3 C          64.1256   83.0226   15.2617 C.ar    1  UNL1        0.0060
      4 C          63.5997   82.6829   13.8986 C.ar    1  UNL1        0.0707
      5 C          63.0230   83.7594   13.0275 C.ar    1  UNL1        0.0853
      6 N          62.4333   83.7263   11.6487 N.2     1  UNL1       -0.2455
      7 C          62.0181   85.1220   11.2885 C.2     1  UNL1        0.0774
      8 C          61.3797   85.6930   10.0571 C.2     1  UNL1        0.0164
      9 C          61.0745   87.1596    9.9819 C.2     1  UNL1       -0.0007
     10 C          61.4076   88.0553   11.1381 C.2     1  UNL1       -0.0233
     11 C          62.0460   87.4843   12.3695 C.3     1  UNL1        0.0536
     12 C          62.3512   86.0176   12.4447 C.2     1  UNL1        0.0013
     13 C          62.9723   85.1755   13.5194 C.ar    1  UNL1        0.0156
     14 C          64.9422   87.6762   13.3844 C.3     1  UNL1        0.0326
     15 C          64.1695   88.0118   14.6255 C.ar    1  UNL1       -0.0056
     16 C          63.4475   86.9314   15.3745 C.ar    1  UNL1       -0.0025
     17 C          62.6747   87.2669   16.6156 C.ar    1  UNL1       -0.0002
     18 C          62.6240   88.6830   17.1076 C.ar    1  UNL1        0.0015
     19 C          63.3461   89.7635   16.3585 C.ar    1  UNL1        0.0173
     20 C          64.1188   89.4279   15.1174 C.ar    1  UNL1        0.0643
     21 N          64.8408   90.5085   14.3683 N.ar    1  UNL1       -0.2570
     22 C          66.0938   91.1061   14.9363 C.ar    1  UNL1        0.1850
     23 N          66.8159   92.1867   14.1872 N.ar    1  UNL1       -0.2249
     24 C          66.2849   92.6695   12.8701 C.ar    1  UNL1        0.0876
     25 C          67.0069   93.7500   12.1211 C.ar    1  UNL1        0.0193
     26 C          66.4758   94.2329   10.8038 C.ar    1  UNL1        0.0015
     27 C          65.2228   93.6352   10.2358 C.ar    1  UNL1        0.0003
     28 C          64.5008   92.5546   10.9849 C.ar    1  UNL1        0.0063
     29 C          65.0319   92.0719   12.3021 C.ar    1  UNL1        0.0742
     30 C          64.3098   90.9913   13.0512 C.ar    1  UNL1        0.2672
     31 O          63.0567   90.3936   12.4830 O.2     1  UNL1       -0.2665
     32 C          63.6504   81.2668   13.4066 C.2     1  UNL1        0.2442
     33 N          63.3498   80.9610   11.9693 N.am    1  UNL1       -0.3253
     34 O          64.0019   80.1565   14.3521 O.2     1  UNL1       -0.2703
     35 H          63.1191   81.6897   11.3488 H       1  UNL1        0.1453
     36 H          63.3831   80.0315   11.6465 H       1  UNL1        0.1453
     37 C          60.4361   87.7307    8.7504 C.3     1  UNL1        0.1069
     38 C          60.6842   89.1176    9.2649 C.3     1  UNL1        0.0339
     39 C          60.1879   86.3437    8.2359 C.3     1  UNL1        0.0339
     40 O          59.7977   88.3017    7.5190 O.3     1  UNL1       -0.3827
     41 H          59.8114   89.2704    7.5673 H       1  UNL1        0.2107
@<TRIPOS>BOND
     1    14    15    1
     2    15    16   ar
     3    16     1    1
     4     1     2   ar
     5     2     3   ar
     6     3     4   ar
     7     4    32    1
     8    32    33   am
     9    32    34    2
    10     4     5   ar
    11     5     6    2
    12     6     7    1
    13     7     8    2
    14     8     9    1
    15     9    37    1
    16    37    38    1
    17    37    39    1
    18    37    40    1
    19     9    10    2
    20    10    11    1
    21    11    12    1
    22    12    13    2
    23    16    17   ar
    24    17    18   ar
    25    18    19   ar
    26    19    20   ar
    27    20    21    1
    28    21    22   ar
    29    22    23   ar
    30    23    24   ar
    31    24    25   ar
    32    25    26   ar
    33    26    27   ar
    34    27    28   ar
    35    28    29   ar
    36    29    30   ar
    37    30    31    2
    38    20    15   ar
    39    30    21   ar
    40    13     1   ar
    41    29    24   ar
    42    13     5   ar
    43    12     7    1
    44    33    35    1
    45    33    36    1
    46    40    41    1
@<TRIPOS>MOLECULE
*****
 41 46 0 0 0
SMALL
GASTEIGER

@<TRIPOS>ATOM
      1 C          62.1892   88.7616   10.8505 C.ar    1  UNL1        0.0009
      2 C          61.4254   89.5525    9.8301 C.ar    1  UNL1        0.0002
      3 C          60.5097   88.8524    8.8703 C.ar    1  UNL1        0.0060
      4 C          60.3577   87.3614    8.9309 C.ar    1  UNL1        0.0707
      5 C          61.1215   86.5705    9.9513 C.ar    1  UNL1        0.0853
      6 N          61.1745   85.1011   10.2482 N.2     1  UNL1       -0.2455
      7 C          62.1230   84.8931   11.3915 C.2     1  UNL1        0.0774
      8 C          62.5699   83.6561   12.1125 C.2     1  UNL1        0.0164
      9 C          63.5502   83.7599   13.2431 C.2     1  UNL1       -0.0007
     10 C          64.0834   85.1007   13.6528 C.2     1  UNL1       -0.0233
     11 C          63.6364   86.3378   12.9318 C.3     1  UNL1        0.0536
     12 C          62.6562   86.2340   11.8012 C.2     1  UNL1        0.0013
     13 C          62.0373   87.2706   10.9110 C.ar    1  UNL1        0.0156
     14 C          63.4808   91.3546   10.0707 C.3     1  UNL1        0.0326
     15 C          63.7508   90.7583   11.4204 C.ar    1  UNL1       -0.0056
     16 C          63.1050   89.4618   11.8103 C.ar    1  UNL1       -0.0025
     17 C          63.3749   88.8655   13.1599 C.ar    1  UNL1       -0.0002
     18 C          64.2907   89.5657   14.1196 C.ar    1  UNL1        0.0015
     19 C          64.9365   90.8622   13.7297 C.ar    1  UNL1        0.0173
     20 C          64.6665   91.4585   12.3801 C.ar    1  UNL1        0.0643
     21 N          65.3123   92.7550   11.9902 N.ar    1  UNL1       -0.2570
     22 C          65.4889   93.8413   13.0094 C.ar    1  UNL1        0.1850
     23 N          66.1347   95.1378   12.6195 N.ar    1  UNL1       -0.2249
     24 C          66.6039   95.3481   11.2104 C.ar    1  UNL1        0.0876
     25 C          67.2497   96.6445   10.8205 C.ar    1  UNL1        0.0193
     26 C          67.7188   96.8547    9.4113 C.ar    1  UNL1        0.0015
     27 C          67.5422   95.7685    8.3921 C.ar    1  UNL1        0.0003
     28 C          66.8964   94.4720    8.7820 C.ar    1  UNL1        0.0063
     29 C          66.4273   94.2618   10.1911 C.ar    1  UNL1        0.0742
     30 C          65.7815   92.9653   10.5811 C.ar    1  UNL1        0.2672
     31 O          65.6049   91.8790    9.5617 O.2     1  UNL1       -0.2665
     32 C          59.4420   86.6612    7.9711 C.2     1  UNL1        0.2442
     33 N          59.9466   85.5033    7.1622 N.am    1  UNL1       -0.3253
     34 O          58.0215   87.1191    7.8203 O.2     1  UNL1       -0.2703
     35 H          60.8789   85.2028    7.2612 H       1  UNL1        0.1453
     36 H          59.3455   85.0438    6.5322 H       1  UNL1        0.1453
     37 C          63.9972   82.5228   13.9641 C.3     1  UNL1        0.1069
     38 C          64.5457   83.3684   15.0750 C.3     1  UNL1        0.0339
     39 C          63.4488   81.6772   12.8533 C.3     1  UNL1        0.0339
     40 O          64.4442   81.2857   14.6851 O.3     1  UNL1       -0.3827
     41 H          64.8750   81.5346   15.5178 H       1  UNL1        0.2107
@<TRIPOS>BOND
     1    14    15    1
     2    15    16   ar
     3    16     1    1
     4     1     2   ar
     5     2     3   ar
     6     3     4   ar
     7     4    32    1
     8    32    33   am
     9    32    34    2
    10     4     5   ar
    11     5     6    2
    12     6     7    1
    13     7     8    2
    14     8     9    1
    15     9    37    1
    16    37    38    1
    17    37    39    1
    18    37    40    1
    19     9    10    2
    20    10    11    1
    21    11    12    1
    22    12    13    2
    23    16    17   ar
    24    17    18   ar
    25    18    19   ar
    26    19    20   ar
    27    20    21    1
    28    21    22   ar
    29    22    23   ar
    30    23    24   ar
    31    24    25   ar
    32    25    26   ar
    33    26    27   ar
    34    27    28   ar
    35    28    29   ar
    36    29    30   ar
    37    30    31    2
    38    20    15   ar
    39    30    21   ar
    40    13     1   ar
    41    29    24   ar
    42    13     5   ar
    43    12     7    1
    44    33    35    1
    45    33    36    1
    46    40    41    1
@<TRIPOS>MOLECULE
*****
 41 46 0 0 0
SMALL
GASTEIGER

@<TRIPOS>ATOM
      1 C          61.6215   89.4826   11.6040 C.ar    1  UNL1        0.0009
      2 C          60.8949   90.5780   10.8812 C.ar    1  UNL1        0.0002
      3 C          60.2123   90.2914    9.5766 C.ar    1  UNL1        0.0060
      4 C          60.2563   88.9096    8.9948 C.ar    1  UNL1        0.0707
      5 C          60.9829   87.8142    9.7176 C.ar    1  UNL1        0.0853
      6 N          61.1951   86.3655    9.3919 N.2     1  UNL1       -0.2455
      7 C          62.0088   85.7567   10.4952 C.2     1  UNL1        0.0774
      8 C          62.5226   84.3643   10.7125 C.2     1  UNL1        0.0164
      9 C          63.3270   84.0444   11.9374 C.2     1  UNL1       -0.0007
     10 C          63.6178   85.1169   12.9450 C.2     1  UNL1       -0.0233
     11 C          63.1040   86.5093   12.7277 C.3     1  UNL1        0.0536
     12 C          62.2995   86.8292   11.5028 C.2     1  UNL1        0.0013
     13 C          61.6654   88.1008   11.0222 C.ar    1  UNL1        0.0156
     14 C          64.3580   90.7117   11.6270 C.3     1  UNL1        0.0326
     15 C          63.6723   90.3838   12.9201 C.ar    1  UNL1       -0.0056
     16 C          62.3040   89.7692   12.9087 C.ar    1  UNL1       -0.0025
     17 C          61.6183   89.4413   14.2018 C.ar    1  UNL1       -0.0002
     18 C          62.3009   89.7279   15.5064 C.ar    1  UNL1        0.0015
     19 C          63.6692   90.3424   15.5178 C.ar    1  UNL1        0.0173
     20 C          64.3549   90.6704   14.2247 C.ar    1  UNL1        0.0643
     21 N          65.7232   91.2849   14.2361 N.ar    1  UNL1       -0.2570
     22 C          66.6809   91.0039   13.1164 C.ar    1  UNL1        0.1850
     23 N          68.0492   91.6185   13.1278 N.ar    1  UNL1       -0.2249
     24 C          68.4598   92.5140   14.2589 C.ar    1  UNL1        0.0876
     25 C          69.8280   93.1286   14.2703 C.ar    1  UNL1        0.0193
     26 C          70.2385   94.0242   15.4015 C.ar    1  UNL1        0.0015
     27 C          69.2807   94.3052   16.5212 C.ar    1  UNL1        0.0003
     28 C          67.9124   93.6907   16.5098 C.ar    1  UNL1        0.0063
     29 C          67.5020   92.7951   15.3786 C.ar    1  UNL1        0.0742
     30 C          66.1337   92.1805   15.3672 C.ar    1  UNL1        0.2672
     31 O          65.1759   92.4616   16.4869 O.2     1  UNL1       -0.2665
     32 C          59.5737   88.6230    7.6902 C.2     1  UNL1        0.2442
     33 N          58.9002   87.3009    7.4707 N.am    1  UNL1       -0.3253
     34 O          59.5647   89.6587    6.6051 O.2     1  UNL1       -0.2703
     35 H          58.9061   86.6212    8.1829 H       1  UNL1        0.1453
     36 H          58.4522   87.1129    6.6145 H       1  UNL1        0.1453
     37 C          63.8409   82.6519   12.1548 C.3     1  UNL1        0.1069
     38 C          63.3523   82.6929   13.5723 C.3     1  UNL1        0.0339
     39 C          64.3294   82.6110   10.7372 C.3     1  UNL1        0.0339
     40 O          64.3547   81.2596   12.3721 O.3     1  UNL1       -0.3827
     41 H          64.1675   80.9844   13.2832 H       1  UNL1        0.2107
@<TRIPOS>BOND
     1    14    15    1
     2    15    16   ar
     3    16     1    1
     4     1     2   ar
     5     2     3   ar
     6     3     4   ar
     7     4    32    1
     8    32    33   am
     9    32    34    2
    10     4     5   ar
    11     5     6    2
    12     6     7    1
    13     7     8    2
    14     8     9    1
    15     9    37    1
    16    37    38    1
    17    37    39    1
    18    37    40    1
    19     9    10    2
    20    10    11    1
    21    11    12    1
    22    12    13    2
    23    16    17   ar
    24    17    18   ar
    25    18    19   ar
    26    19    20   ar
    27    20    21    1
    28    21    22   ar
    29    22    23   ar
    30    23    24   ar
    31    24    25   ar
    32    25    26   ar
    33    26    27   ar
    34    27    28   ar
    35    28    29   ar
    36    29    30   ar
    37    30    31    2
    38    20    15   ar
    39    30    21   ar
    40    13     1   ar
    41    29    24   ar
    42    13     5   ar
    43    12     7    1
    44    33    35    1
    45    33    36    1
    46    40    41    1
