@<TRIPOS>MOLECULE
*****
 36 39 0 0 0
SMALL
GASTEIGER

@<TRIPOS>ATOM
      1 N          63.7381   87.4654   15.9212 N.am    1  UNL1       -0.2681
      2 C          64.1470   88.4561   14.8719 C.2     1  UNL1        0.3082
      3 O          64.0569   88.0908   13.4199 O.2     1  UNL1       -0.2522
      4 N          64.6459   89.8122   15.2745 N.am    1  UNL1       -0.2681
      5 H          63.7972   87.7052   16.8743 H       1  UNL1        0.1564
      6 H          64.7051   90.0520   16.2275 H       1  UNL1        0.1564
      7 C          62.9444   84.2651   13.7124 C.ar    1  UNL1        0.0548
      8 C          62.2411   83.3971   14.7135 C.ar    1  UNL1        0.0046
      9 C          62.0370   83.8852   16.1171 C.ar    1  UNL1        0.0014
     10 C          62.5359   85.2413   16.5197 C.ar    1  UNL1        0.0147
     11 C          63.2391   86.1092   15.5186 C.ar    1  UNL1        0.0517
     12 C          63.4433   85.6213   14.1150 C.ar    1  UNL1        0.0192
     13 N          63.3320   82.3122   12.0434 N.am    1  UNL1       -0.2793
     14 C          63.1485   83.7771   12.3089 C.2     1  UNL1        0.2490
     15 O          63.1693   84.7539   11.1707 O.2     1  UNL1       -0.2699
     16 C          62.9913   80.4902   10.2229 C.3     1  UNL1        0.0215
     17 C          63.5362   81.8241   10.6398 C.3     1  UNL1        0.0757
     18 C          64.2854   82.6699    9.6533 C.3     1  UNL1        0.0215
     19 C          63.3113   81.3354   13.1816 C.3     1  UNL1        0.0757
     20 C          62.0427   80.6137   13.5275 C.3     1  UNL1        0.0215
     21 C          64.5592   81.0803   13.9738 C.3     1  UNL1        0.0215
     22 C          65.0548   90.8029   14.2252 C.ar    1  UNL1        0.0516
     23 C          64.1799   91.0320   13.0284 C.ar    1  UNL1        0.0147
     24 C          64.5888   92.0227   11.9791 C.ar    1  UNL1        0.0010
     25 C          65.8727   92.7844   12.1264 C.ar    1  UNL1       -0.0014
     26 C          66.7476   92.5554   13.3231 C.ar    1  UNL1        0.0010
     27 C          66.3386   91.5646   14.3725 C.ar    1  UNL1        0.0147
     28 C          66.2816   93.7751   11.0770 C.2     1  UNL1        0.0158
     29 C          65.7611   95.1810   11.1294 C.2     1  UNL1        0.0487
     30 C          66.1699   96.1717   10.0800 C.2     1  UNL1        0.2355
     31 N          67.0994   95.7566    8.9782 N.2     1  UNL1       -0.0325
     32 C          67.6198   94.3508    8.9258 C.2     1  UNL1        0.3799
     33 N          68.5423   93.6572    7.9677 N.2     1  UNL1       -0.0106
     34 C          68.7035   92.2377    8.4250 C.2     1  UNL1        0.3351
     35 N          67.8807   92.0541    9.6657 N.2     1  UNL1       -0.2103
     36 C          67.2109   93.3601    9.9752 C.3     1  UNL1        0.2404
@<TRIPOS>BOND
     1    16    17    1
     2    17    18    1
     3    17    13    1
     4    13    14   am
     5    14    15    2
     6    14     7    1
     7     7     8   ar
     8     8     9   ar
     9     9    10   ar
    10    10    11   ar
    11    11     1    1
    12     1     2   am
    13     2     3    2
    14     2     4   am
    15     4    22    1
    16    22    23   ar
    17    23    24   ar
    18    24    25   ar
    19    25    28    1
    20    28    29    2
    21    29    30    1
    22    30    31    2
    23    31    32    1
    24    32    33    2
    25    33    34    1
    26    34    35    2
    27    35    36    1
    28    25    26   ar
    29    26    27   ar
    30    11    12   ar
    31    13    19    1
    32    19    20    1
    33    19    21    1
    34    12     7   ar
    35    27    22   ar
    36    36    28    1
    37    36    32    1
    38     1     5    1
    39     4     6    1
@<TRIPOS>MOLECULE
*****
 36 39 0 0 0
SMALL
GASTEIGER

@<TRIPOS>ATOM
      1 N          63.9344   87.0529   15.2232 N.am    1  UNL1       -0.2681
      2 C          64.3020   88.2501   14.3978 C.2     1  UNL1        0.3082
      3 O          64.1566   88.2057   12.9056 O.2     1  UNL1       -0.2522
      4 N          64.8151   89.4920   15.0646 N.am    1  UNL1       -0.2681
      5 H          64.0298   87.0822   16.2026 H       1  UNL1        0.1564
      6 H          64.9106   89.5212   16.0441 H       1  UNL1        0.1564
      7 C          62.8746   84.4810   12.3925 C.ar    1  UNL1        0.0548
      8 C          62.3951   83.3274   13.2229 C.ar    1  UNL1        0.0046
      9 C          62.4288   83.4156   14.7199 C.ar    1  UNL1        0.0014
     10 C          62.9419   84.6575   15.3866 C.ar    1  UNL1        0.0147
     11 C          63.4213   85.8110   14.5564 C.ar    1  UNL1        0.0517
     12 C          63.3877   85.7229   13.0594 C.ar    1  UNL1        0.0192
     13 N          62.3081   85.5394   10.0884 N.am    1  UNL1       -0.2793
     14 C          62.8409   84.3928   10.8956 C.2     1  UNL1        0.2490
     15 O          63.3401   83.1580   10.2057 O.2     1  UNL1       -0.2699
     16 C          61.0227   85.8101    7.8469 C.3     1  UNL1        0.0215
     17 C          62.2744   85.4512    8.5914 C.3     1  UNL1        0.0757
     18 C          63.4925   85.0041    7.8390 C.3     1  UNL1        0.0215
     19 C          61.8089   86.7742   10.7784 C.3     1  UNL1        0.0757
     20 C          62.4400   88.1034   10.4867 C.3     1  UNL1        0.0215
     21 C          60.6787   86.6799   11.7600 C.3     1  UNL1        0.0215
     22 C          65.1828   90.6892   14.2393 C.ar    1  UNL1        0.0516
     23 C          64.3488   91.0655   13.0505 C.ar    1  UNL1        0.0147
     24 C          64.7165   92.2627   12.2252 C.ar    1  UNL1        0.0010
     25 C          65.9182   93.0838   12.5884 C.ar    1  UNL1       -0.0014
     26 C          66.7521   92.7076   13.7771 C.ar    1  UNL1        0.0010
     27 C          66.3844   91.5103   14.6025 C.ar    1  UNL1        0.0147
     28 C          66.2858   94.2811   11.7630 C.2     1  UNL1        0.0158
     29 C          65.9366   95.6587   12.2428 C.2     1  UNL1        0.0487
     30 C          66.3042   96.8560   11.4174 C.2     1  UNL1        0.2355
     31 N          67.0211   96.6757   10.1121 N.2     1  UNL1       -0.0325
     32 C          67.3703   95.2981    9.6323 C.2     1  UNL1        0.3799
     33 N          68.0693   94.8126    8.3971 N.2     1  UNL1       -0.0106
     34 C          68.1336   93.3153    8.4591 C.2     1  UNL1        0.3351
     35 N          67.4744   92.8753    9.7327 N.2     1  UNL1       -0.2103
     36 C          67.0027   94.1008   10.4578 C.3     1  UNL1        0.2404
@<TRIPOS>BOND
     1    16    17    1
     2    17    18    1
     3    17    13    1
     4    13    14   am
     5    14    15    2
     6    14     7    1
     7     7     8   ar
     8     8     9   ar
     9     9    10   ar
    10    10    11   ar
    11    11     1    1
    12     1     2   am
    13     2     3    2
    14     2     4   am
    15     4    22    1
    16    22    23   ar
    17    23    24   ar
    18    24    25   ar
    19    25    28    1
    20    28    29    2
    21    29    30    1
    22    30    31    2
    23    31    32    1
    24    32    33    2
    25    33    34    1
    26    34    35    2
    27    35    36    1
    28    25    26   ar
    29    26    27   ar
    30    11    12   ar
    31    13    19    1
    32    19    20    1
    33    19    21    1
    34    12     7   ar
    35    27    22   ar
    36    36    28    1
    37    36    32    1
    38     1     5    1
    39     4     6    1
@<TRIPOS>MOLECULE
*****
 36 39 0 0 0
SMALL
GASTEIGER

@<TRIPOS>ATOM
      1 N          64.6672   91.2276   15.6675 N.am    1  UNL1       -0.2681
      2 C          64.6419   89.9258   14.9228 C.2     1  UNL1        0.3082
      3 O          65.6588   89.6531   13.8543 O.2     1  UNL1       -0.2522
      4 N          63.5998   88.8966   15.2466 N.am    1  UNL1       -0.2681
      5 H          63.9999   91.4066   16.3688 H       1  UNL1        0.1564
      6 H          62.9324   89.0756   15.9479 H       1  UNL1        0.1564
      7 C          66.5956   94.1556   13.8077 C.ar    1  UNL1        0.0548
      8 C          67.7937   94.3151   14.6962 C.ar    1  UNL1        0.0046
      9 C          67.9495   93.4454   15.9084 C.ar    1  UNL1        0.0014
     10 C          66.9074   92.4163   16.2322 C.ar    1  UNL1        0.0147
     11 C          65.7094   92.2568   15.3437 C.ar    1  UNL1        0.0517
     12 C          65.5535   93.1264   14.1315 C.ar    1  UNL1        0.0192
     13 N          66.3486   94.4037   11.2333 N.am    1  UNL1       -0.2793
     14 C          66.4398   95.0252   12.5956 C.2     1  UNL1        0.2490
     15 O          66.3751   96.5162   12.7455 O.2     1  UNL1       -0.2699
     16 C          65.0080   96.1853    9.8996 C.3     1  UNL1        0.0215
     17 C          66.1927   95.2734   10.0211 C.3     1  UNL1        0.0757
     18 C          67.2216   95.2310    8.9305 C.3     1  UNL1        0.0215
     19 C          66.4133   92.9127   11.0834 C.3     1  UNL1        0.0757
     20 C          65.1513   92.1211   10.9080 C.3     1  UNL1        0.0215
     21 C          67.7399   92.2131   11.1089 C.3     1  UNL1        0.0215
     22 C          63.5745   87.5948   14.5020 C.ar    1  UNL1        0.0516
     23 C          63.1063   87.5546   13.0774 C.ar    1  UNL1        0.0147
     24 C          63.0810   86.2528   12.3328 C.ar    1  UNL1        0.0010
     25 C          63.5239   84.9911   13.0126 C.ar    1  UNL1       -0.0014
     26 C          63.9921   85.0313   14.4371 C.ar    1  UNL1        0.0010
     27 C          64.0174   86.3332   15.1817 C.ar    1  UNL1        0.0147
     28 C          63.4986   83.6893   12.2679 C.2     1  UNL1        0.0158
     29 C          64.1293   83.5892   10.9107 C.2     1  UNL1        0.0487
     30 C          64.1040   82.2875   10.1660 C.2     1  UNL1        0.2355
     31 N          63.4480   81.0856   10.7785 N.2     1  UNL1       -0.0325
     32 C          62.8173   81.1856   12.1358 C.2     1  UNL1        0.3799
     33 N          62.1029   80.1783   12.9872 N.2     1  UNL1       -0.0106
     34 C          61.6867   80.8576   14.2581 C.2     1  UNL1        0.3351
     35 N          62.1438   82.2847   14.1922 N.2     1  UNL1       -0.2103
     36 C          62.8426   82.4874   12.8805 C.3     1  UNL1        0.2404
@<TRIPOS>BOND
     1    16    17    1
     2    17    18    1
     3    17    13    1
     4    13    14   am
     5    14    15    2
     6    14     7    1
     7     7     8   ar
     8     8     9   ar
     9     9    10   ar
    10    10    11   ar
    11    11     1    1
    12     1     2   am
    13     2     3    2
    14     2     4   am
    15     4    22    1
    16    22    23   ar
    17    23    24   ar
    18    24    25   ar
    19    25    28    1
    20    28    29    2
    21    29    30    1
    22    30    31    2
    23    31    32    1
    24    32    33    2
    25    33    34    1
    26    34    35    2
    27    35    36    1
    28    25    26   ar
    29    26    27   ar
    30    11    12   ar
    31    13    19    1
    32    19    20    1
    33    19    21    1
    34    12     7   ar
    35    27    22   ar
    36    36    28    1
    37    36    32    1
    38     1     5    1
    39     4     6    1
@<TRIPOS>MOLECULE
*****
 36 39 0 0 0
SMALL
GASTEIGER

@<TRIPOS>ATOM
      1 N          58.7731   90.6569    6.2160 N.am    1  UNL1       -0.2681
      2 C          59.6325   91.0640    5.0561 C.2     1  UNL1        0.3082
      3 O          60.9094   90.3289    4.7744 O.2     1  UNL1       -0.2522
      4 N          59.2152   92.2061    4.1777 N.am    1  UNL1       -0.2681
      5 H          57.9350   91.1394    6.4009 H       1  UNL1        0.1564
      6 H          58.3772   92.6886    4.3626 H       1  UNL1        0.1564
      7 C          60.7219   88.5544    8.9604 C.ar    1  UNL1        0.0548
      8 C          60.0249   87.2305    8.8510 C.ar    1  UNL1        0.0046
      9 C          58.9107   87.0489    7.8632 C.ar    1  UNL1        0.0014
     10 C          58.4935   88.1911    6.9849 C.ar    1  UNL1        0.0147
     11 C          59.1904   89.5148    7.0944 C.ar    1  UNL1        0.0517
     12 C          60.3045   89.6965    8.0820 C.ar    1  UNL1        0.0192
     13 N          61.5471   89.2928   11.3107 N.am    1  UNL1       -0.2793
     14 C          61.8360   88.7360    9.9481 C.2     1  UNL1        0.2490
     15 O          63.2391   88.3608    9.5733 O.2     1  UNL1       -0.2699
     16 C          63.3514   88.2760   12.8793 C.3     1  UNL1        0.0215
     17 C          62.6612   89.4744   12.2985 C.3     1  UNL1        0.0757
     18 C          63.0851   90.8545   12.7053 C.3     1  UNL1        0.0215
     19 C          60.1439   89.6679   11.6855 C.3     1  UNL1        0.0757
     20 C          59.2641   88.6756   12.3864 C.3     1  UNL1        0.0215
     21 C          59.6206   91.0353   11.3593 C.3     1  UNL1        0.0215
     22 C          60.0746   92.6132    3.0178 C.ar    1  UNL1        0.0516
     23 C          61.5642   92.4544    3.0959 C.ar    1  UNL1        0.0147
     24 C          62.4237   92.8615    1.9360 C.ar    1  UNL1        0.0010
     25 C          61.7936   93.4273    0.6978 C.ar    1  UNL1       -0.0014
     26 C          60.3041   93.5860    0.6196 C.ar    1  UNL1        0.0010
     27 C          59.4446   93.1789    1.7797 C.ar    1  UNL1        0.0147
     28 C          62.6532   93.8343   -0.4622 C.2     1  UNL1        0.0158
     29 C          62.4006   93.2549   -1.8225 C.2     1  UNL1        0.0487
     30 C          63.2601   93.6619   -2.9824 C.2     1  UNL1        0.2355
     31 N          64.3722   94.6484   -2.7822 N.2     1  UNL1       -0.0325
     32 C          64.6247   95.2279   -1.4219 C.2     1  UNL1        0.3799
     33 N          65.6396   96.2135   -0.9234 N.2     1  UNL1       -0.0106
     34 C          65.4074   96.4156    0.5446 C.2     1  UNL1        0.3351
     35 N          64.2489   95.5549    0.9535 N.2     1  UNL1       -0.2103
     36 C          63.7652   94.8208   -0.2619 C.3     1  UNL1        0.2404
@<TRIPOS>BOND
     1    16    17    1
     2    17    18    1
     3    17    13    1
     4    13    14   am
     5    14    15    2
     6    14     7    1
     7     7     8   ar
     8     8     9   ar
     9     9    10   ar
    10    10    11   ar
    11    11     1    1
    12     1     2   am
    13     2     3    2
    14     2     4   am
    15     4    22    1
    16    22    23   ar
    17    23    24   ar
    18    24    25   ar
    19    25    28    1
    20    28    29    2
    21    29    30    1
    22    30    31    2
    23    31    32    1
    24    32    33    2
    25    33    34    1
    26    34    35    2
    27    35    36    1
    28    25    26   ar
    29    26    27   ar
    30    11    12   ar
    31    13    19    1
    32    19    20    1
    33    19    21    1
    34    12     7   ar
    35    27    22   ar
    36    36    28    1
    37    36    32    1
    38     1     5    1
    39     4     6    1
@<TRIPOS>MOLECULE
*****
 36 39 0 0 0
SMALL
GASTEIGER

@<TRIPOS>ATOM
      1 N          59.1915   91.6111    4.2022 N.am    1  UNL1       -0.2681
      2 C          59.8752   90.8391    5.2914 C.2     1  UNL1        0.3082
      3 O          61.3725   90.8355    5.3818 O.2     1  UNL1       -0.2522
      4 N          59.0617   90.0707    6.2903 N.am    1  UNL1       -0.2681
      5 H          58.2088   91.6134    4.1428 H       1  UNL1        0.1564
      6 H          58.0790   90.0730    6.2310 H       1  UNL1        0.1564
      7 C          60.1851   94.2535    1.4128 C.ar    1  UNL1        0.0548
      8 C          61.6320   93.9163    1.2054 C.ar    1  UNL1        0.0046
      9 C          62.2653   92.8107    1.9970 C.ar    1  UNL1        0.0014
     10 C          61.4518   92.0423    2.9959 C.ar    1  UNL1        0.0147
     11 C          60.0050   92.3795    3.2032 C.ar    1  UNL1        0.0517
     12 C          59.3716   93.4850    2.4117 C.ar    1  UNL1        0.0192
     13 N          58.8407   95.0500   -0.6629 N.am    1  UNL1       -0.2793
     14 C          59.5518   95.3590    0.6213 C.2     1  UNL1        0.2490
     15 O          59.6296   96.7737    1.1137 O.2     1  UNL1       -0.2699
     16 C          56.7904   96.5609   -1.1758 C.3     1  UNL1        0.0215
     17 C          58.2074   96.1555   -1.4545 C.3     1  UNL1        0.0757
     18 C          58.9912   96.8557   -2.5247 C.3     1  UNL1        0.0215
     19 C          58.7630   93.6352   -1.1553 C.3     1  UNL1        0.0757
     20 C          59.8774   93.0670   -1.9830 C.3     1  UNL1        0.0215
     21 C          57.5709   92.7888   -0.8201 C.3     1  UNL1        0.0215
     22 C          59.7454   89.2988    7.3795 C.ar    1  UNL1        0.0516
     23 C          60.4384   90.0265    8.4932 C.ar    1  UNL1        0.0147
     24 C          61.1221   89.2546    9.5824 C.ar    1  UNL1        0.0010
     25 C          61.1130   87.7548    9.5581 C.ar    1  UNL1       -0.0014
     26 C          60.4201   87.0269    8.4445 C.ar    1  UNL1        0.0010
     27 C          59.7363   87.7990    7.3552 C.ar    1  UNL1        0.0147
     28 C          61.7968   86.9828   10.6474 C.2     1  UNL1        0.0158
     29 C          61.7090   85.4856   10.6743 C.2     1  UNL1        0.0487
     30 C          62.3927   84.7137   11.7635 C.2     1  UNL1        0.2355
     31 N          63.1643   85.4389   12.8260 N.2     1  UNL1       -0.0325
     32 C          63.2521   86.9361   12.7991 C.2     1  UNL1        0.3799
     33 N          63.9353   87.9178   13.7043 N.2     1  UNL1       -0.0106
     34 C          63.6737   89.2965   13.1745 C.2     1  UNL1        0.3351
     35 N          62.8289   89.1669   11.9418 N.2     1  UNL1       -0.2103
     36 C          62.5683   87.7080   11.7098 C.3     1  UNL1        0.2404
@<TRIPOS>BOND
     1    16    17    1
     2    17    18    1
     3    17    13    1
     4    13    14   am
     5    14    15    2
     6    14     7    1
     7     7     8   ar
     8     8     9   ar
     9     9    10   ar
    10    10    11   ar
    11    11     1    1
    12     1     2   am
    13     2     3    2
    14     2     4   am
    15     4    22    1
    16    22    23   ar
    17    23    24   ar
    18    24    25   ar
    19    25    28    1
    20    28    29    2
    21    29    30    1
    22    30    31    2
    23    31    32    1
    24    32    33    2
    25    33    34    1
    26    34    35    2
    27    35    36    1
    28    25    26   ar
    29    26    27   ar
    30    11    12   ar
    31    13    19    1
    32    19    20    1
    33    19    21    1
    34    12     7   ar
    35    27    22   ar
    36    36    28    1
    37    36    32    1
    38     1     5    1
    39     4     6    1
@<TRIPOS>MOLECULE
*****
 36 39 0 0 0
SMALL
GASTEIGER

@<TRIPOS>ATOM
      1 N          58.7755   90.4598    6.0898 N.am    1  UNL1       -0.2681
      2 C          59.7779   91.0635    5.1514 C.2     1  UNL1        0.3082
      3 O          61.1971   90.5780    5.1563 O.2     1  UNL1       -0.2522
      4 N          59.3611   92.1528    4.2080 N.am    1  UNL1       -0.2681
      5 H          57.8440   90.7785    6.0866 H       1  UNL1        0.1564
      6 H          58.4296   92.4714    4.2048 H       1  UNL1        0.1564
      7 C          60.7238   88.5194    8.9515 C.ar    1  UNL1        0.0548
      8 C          60.0257   87.1920    8.9198 C.ar    1  UNL1        0.0046
      9 C          58.9110   86.9540    7.9448 C.ar    1  UNL1        0.0014
     10 C          58.4942   88.0433    7.0015 C.ar    1  UNL1        0.0147
     11 C          59.1923   89.3705    7.0332 C.ar    1  UNL1        0.0517
     12 C          60.3070   89.6087    8.0081 C.ar    1  UNL1        0.0192
     13 N          61.5418   89.3353   11.2786 N.am    1  UNL1       -0.2793
     14 C          61.8385   88.7574    9.9264 C.2     1  UNL1        0.2490
     15 O          63.2500   88.4177    9.5494 O.2     1  UNL1       -0.2699
     16 C          63.1493   90.9678   12.5036 C.3     1  UNL1        0.0215
     17 C          62.6565   89.5733   12.2536 C.3     1  UNL1        0.0757
     18 C          63.2784   88.4168   12.9786 C.3     1  UNL1        0.0215
     19 C          60.1302   89.6750   11.6556 C.3     1  UNL1        0.0757
     20 C          59.5706   91.0270   11.3258 C.3     1  UNL1        0.0215
     21 C          59.2784   88.6627   12.3624 C.3     1  UNL1        0.0215
     22 C          60.3634   92.7565    3.2697 C.ar    1  UNL1        0.0516
     23 C          60.0383   94.0263    2.5403 C.ar    1  UNL1        0.0147
     24 C          61.0406   94.6300    1.6019 C.ar    1  UNL1        0.0010
     25 C          62.3683   93.9639    1.3928 C.ar    1  UNL1       -0.0014
     26 C          62.6936   92.6941    2.1221 C.ar    1  UNL1        0.0010
     27 C          61.6911   92.0904    3.0605 C.ar    1  UNL1        0.0147
     28 C          63.3708   94.5676    0.4543 C.2     1  UNL1        0.0158
     29 C          64.3950   95.5339    0.9712 C.2     1  UNL1        0.0487
     30 C          65.3973   96.1377    0.0329 C.2     1  UNL1        0.2355
     31 N          65.3756   95.7751   -1.4226 N.2     1  UNL1       -0.0325
     32 C          64.3514   94.8088   -1.9395 C.2     1  UNL1        0.3799
     33 N          64.0868   94.2658   -3.3124 N.2     1  UNL1       -0.0106
     34 C          62.9208   93.3264   -3.2225 C.2     1  UNL1        0.3351
     35 N          62.4648   93.2889   -1.7940 N.2     1  UNL1       -0.2103
     36 C          63.3489   94.2051   -1.0010 C.3     1  UNL1        0.2404
@<TRIPOS>BOND
     1    16    17    1
     2    17    18    1
     3    17    13    1
     4    13    14   am
     5    14    15    2
     6    14     7    1
     7     7     8   ar
     8     8     9   ar
     9     9    10   ar
    10    10    11   ar
    11    11     1    1
    12     1     2   am
    13     2     3    2
    14     2     4   am
    15     4    22    1
    16    22    23   ar
    17    23    24   ar
    18    24    25   ar
    19    25    28    1
    20    28    29    2
    21    29    30    1
    22    30    31    2
    23    31    32    1
    24    32    33    2
    25    33    34    1
    26    34    35    2
    27    35    36    1
    28    25    26   ar
    29    26    27   ar
    30    11    12   ar
    31    13    19    1
    32    19    20    1
    33    19    21    1
    34    12     7   ar
    35    27    22   ar
    36    36    28    1
    37    36    32    1
    38     1     5    1
    39     4     6    1
@<TRIPOS>MOLECULE
*****
 36 39 0 0 0
SMALL
GASTEIGER

@<TRIPOS>ATOM
      1 N          64.5847   91.3076   15.9573 N.am    1  UNL1       -0.2681
      2 C          64.5103   89.9074   15.4247 C.2     1  UNL1        0.3082
      3 O          65.5406   89.4201   14.4496 O.2     1  UNL1       -0.2522
      4 N          63.4054   88.9943   15.8673 N.am    1  UNL1       -0.2681
      5 H          63.9084   91.6274   16.5973 H       1  UNL1        0.1564
      6 H          62.7291   89.3142   16.5072 H       1  UNL1        0.1564
      7 C          66.6062   94.0109   13.8701 C.ar    1  UNL1        0.0548
      8 C          67.8992   94.0467   14.6299 C.ar    1  UNL1        0.0046
      9 C          68.0872   93.1695   15.8320 C.ar    1  UNL1        0.0014
     10 C          66.9824   92.2565   16.2745 C.ar    1  UNL1        0.0147
     11 C          65.6895   92.2207   15.5148 C.ar    1  UNL1        0.0517
     12 C          65.5014   93.0978   14.3127 C.ar    1  UNL1        0.0192
     13 N          66.3101   94.2763   11.3027 N.am    1  UNL1       -0.2793
     14 C          66.4181   94.8880   12.6681 C.2     1  UNL1        0.2490
     15 O          66.3381   96.3770   12.8312 O.2     1  UNL1       -0.2699
     16 C          67.0796   95.0639    8.9495 C.3     1  UNL1        0.0215
     17 C          66.1220   95.1535   10.1005 C.3     1  UNL1        0.0757
     18 C          64.9763   96.1202   10.0495 C.3     1  UNL1        0.0215
     19 C          66.3901   92.7874   11.1395 C.3     1  UNL1        0.0757
     20 C          65.1333   91.9775   11.0184 C.3     1  UNL1        0.0215
     21 C          67.7269   92.1082   11.0975 C.3     1  UNL1        0.0215
     22 C          63.3310   87.5941   15.3347 C.ar    1  UNL1        0.0516
     23 C          63.0999   86.4463   16.2724 C.ar    1  UNL1        0.0147
     24 C          63.0255   85.0461   15.7399 C.ar    1  UNL1        0.0010
     25 C          63.1822   84.7935   14.2695 C.ar    1  UNL1       -0.0014
     26 C          63.4132   85.9412   13.3318 C.ar    1  UNL1        0.0010
     27 C          63.4876   87.3415   13.8645 C.ar    1  UNL1        0.0147
     28 C          63.1077   83.3932   13.7370 C.2     1  UNL1        0.0158
     29 C          62.7003   82.2677   14.6409 C.2     1  UNL1        0.0487
     30 C          62.6259   80.8674   14.1084 C.2     1  UNL1        0.2355
     31 N          62.9589   80.5926   12.6719 N.2     1  UNL1       -0.0325
     32 C          63.3663   81.7181   11.7679 C.2     1  UNL1        0.3799
     33 N          63.7498   81.7525   10.3182 N.2     1  UNL1       -0.0106
     34 C          64.0613   83.1740    9.9547 C.2     1  UNL1        0.3351
     35 N          63.8703   84.0183   11.1798 N.2     1  UNL1       -0.2103
     36 C          63.4407   83.1184   12.3004 C.3     1  UNL1        0.2404
@<TRIPOS>BOND
     1    16    17    1
     2    17    18    1
     3    17    13    1
     4    13    14   am
     5    14    15    2
     6    14     7    1
     7     7     8   ar
     8     8     9   ar
     9     9    10   ar
    10    10    11   ar
    11    11     1    1
    12     1     2   am
    13     2     3    2
    14     2     4   am
    15     4    22    1
    16    22    23   ar
    17    23    24   ar
    18    24    25   ar
    19    25    28    1
    20    28    29    2
    21    29    30    1
    22    30    31    2
    23    31    32    1
    24    32    33    2
    25    33    34    1
    26    34    35    2
    27    35    36    1
    28    25    26   ar
    29    26    27   ar
    30    11    12   ar
    31    13    19    1
    32    19    20    1
    33    19    21    1
    34    12     7   ar
    35    27    22   ar
    36    36    28    1
    37    36    32    1
    38     1     5    1
    39     4     6    1
@<TRIPOS>MOLECULE
*****
 36 39 0 0 0
SMALL
GASTEIGER

@<TRIPOS>ATOM
      1 N          63.8149   87.8003   15.8491 N.am    1  UNL1       -0.2681
      2 C          64.3037   88.6451   14.7102 C.2     1  UNL1        0.3082
      3 O          64.2920   88.0998   13.3129 O.2     1  UNL1       -0.2522
      4 N          64.8044   90.0354   14.9685 N.am    1  UNL1       -0.2681
      5 H          63.8226   88.1583   16.7662 H       1  UNL1        0.1564
      6 H          64.8122   90.3933   15.8855 H       1  UNL1        0.1564
      7 C          62.9787   84.4033   13.9752 C.ar    1  UNL1        0.0548
      8 C          62.3128   83.6297   15.0744 C.ar    1  UNL1        0.0046
      9 C          62.1475   84.2464   16.4318 C.ar    1  UNL1        0.0014
     10 C          62.6482   85.6366   16.6900 C.ar    1  UNL1        0.0147
     11 C          63.3142   86.4101   15.5908 C.ar    1  UNL1        0.0517
     12 C          63.4794   85.7936   14.2334 C.ar    1  UNL1        0.0192
     13 N          63.2005   82.2947   12.4737 N.am    1  UNL1       -0.2793
     14 C          63.1440   83.7867   12.6179 C.2     1  UNL1        0.2490
     15 O          63.2527   84.6621   11.4046 O.2     1  UNL1       -0.2699
     16 C          64.0496   82.4439   10.0228 C.3     1  UNL1        0.0215
     17 C          63.3658   81.6780   11.1163 C.3     1  UNL1        0.0757
     18 C          62.8472   80.2955   10.8526 C.3     1  UNL1        0.0215
     19 C          63.0918   81.4194   13.6869 C.3     1  UNL1        0.0757
     20 C          61.7440   80.9761   14.1736 C.3     1  UNL1        0.0215
     21 C          64.3310   80.9873   14.4135 C.3     1  UNL1        0.0215
     22 C          65.2933   90.8801   13.8296 C.ar    1  UNL1        0.0516
     23 C          66.7220   91.3358   13.7930 C.ar    1  UNL1        0.0147
     24 C          67.2109   92.1805   12.6541 C.ar    1  UNL1        0.0010
     25 C          66.2711   92.5698   11.5516 C.ar    1  UNL1       -0.0014
     26 C          64.8425   92.1141   11.5881 C.ar    1  UNL1        0.0010
     27 C          64.3536   91.2693   12.7271 C.ar    1  UNL1        0.0147
     28 C          66.7601   93.4146   10.4126 C.2     1  UNL1        0.0158
     29 C          67.8834   92.9277    9.5460 C.2     1  UNL1        0.0487
     30 C          68.3724   93.7725    8.4071 C.2     1  UNL1        0.2355
     31 N          67.7380   95.1042    8.1347 N.2     1  UNL1       -0.0325
     32 C          66.6146   95.5910    9.0013 C.2     1  UNL1        0.3799
     33 N          65.8005   96.8506    8.9755 N.2     1  UNL1       -0.0106
     34 C          64.8084   96.7843   10.0986 C.2     1  UNL1        0.3351
     35 N          65.0094   95.4837   10.8185 N.2     1  UNL1       -0.2103
     36 C          66.1256   94.7462   10.1402 C.3     1  UNL1        0.2404
@<TRIPOS>BOND
     1    16    17    1
     2    17    18    1
     3    17    13    1
     4    13    14   am
     5    14    15    2
     6    14     7    1
     7     7     8   ar
     8     8     9   ar
     9     9    10   ar
    10    10    11   ar
    11    11     1    1
    12     1     2   am
    13     2     3    2
    14     2     4   am
    15     4    22    1
    16    22    23   ar
    17    23    24   ar
    18    24    25   ar
    19    25    28    1
    20    28    29    2
    21    29    30    1
    22    30    31    2
    23    31    32    1
    24    32    33    2
    25    33    34    1
    26    34    35    2
    27    35    36    1
    28    25    26   ar
    29    26    27   ar
    30    11    12   ar
    31    13    19    1
    32    19    20    1
    33    19    21    1
    34    12     7   ar
    35    27    22   ar
    36    36    28    1
    37    36    32    1
    38     1     5    1
    39     4     6    1
@<TRIPOS>MOLECULE
*****
 36 39 0 0 0
SMALL
GASTEIGER

@<TRIPOS>ATOM
      1 N          65.7902   96.8551    3.4977 N.am    1  UNL1       -0.2681
      2 C          65.7038   96.1556    4.8217 C.2     1  UNL1        0.3082
      3 O          65.1086   94.7814    4.9065 O.2     1  UNL1       -0.2522
      4 N          66.2124   96.8304    6.0611 N.am    1  UNL1       -0.2681
      5 H          66.1809   97.7570    3.4421 H       1  UNL1        0.1564
      6 H          66.6031   97.7323    6.0055 H       1  UNL1        0.1564
      7 C          63.6683   94.4953    1.1146 C.ar    1  UNL1        0.0548
      8 C          64.2643   94.8309   -0.2205 C.ar    1  UNL1        0.0046
      9 C          65.3689   95.8413   -0.3161 C.ar    1  UNL1        0.0014
     10 C          65.8775   96.5160    0.9233 C.ar    1  UNL1        0.0147
     11 C          65.2816   96.1803    2.2583 C.ar    1  UNL1        0.0517
     12 C          64.1770   95.1700    2.3540 C.ar    1  UNL1        0.0192
     13 N          61.1370   93.9152    1.0393 N.am    1  UNL1       -0.2793
     14 C          62.5638   93.4850    1.2102 C.2     1  UNL1        0.2490
     15 O          62.8860   92.0445    1.4766 O.2     1  UNL1       -0.2699
     16 C          59.3552   92.6561    2.4500 C.3     1  UNL1        0.0215
     17 C          60.0324   92.9049    1.1349 C.3     1  UNL1        0.0757
     18 C          59.6050   92.1433   -0.0847 C.3     1  UNL1        0.0215
     19 C          60.8148   95.3557    0.7728 C.3     1  UNL1        0.0757
     20 C          60.5706   96.2938    1.9175 C.3     1  UNL1        0.0215
     21 C          60.7368   95.8582   -0.6384 C.3     1  UNL1        0.0215
     22 C          66.1260   96.1309    7.3851 C.ar    1  UNL1        0.0516
     23 C          67.0803   95.0203    7.7105 C.ar    1  UNL1        0.0147
     24 C          66.9938   94.3208    9.0345 C.ar    1  UNL1        0.0010
     25 C          65.9530   94.7319   10.0334 C.ar    1  UNL1       -0.0014
     26 C          64.9986   95.8425    9.7081 C.ar    1  UNL1        0.0010
     27 C          65.0851   96.5420    8.3840 C.ar    1  UNL1        0.0147
     28 C          65.8665   94.0324   11.3575 C.2     1  UNL1        0.0158
     29 C          66.6211   94.5666   12.5386 C.2     1  UNL1        0.0487
     30 C          66.5346   93.8672   13.8626 C.2     1  UNL1        0.2355
     31 N          65.6936   92.6334   14.0056 N.2     1  UNL1       -0.0325
     32 C          64.9390   92.0991   12.8245 C.2     1  UNL1        0.3799
     33 N          64.0361   90.9122   12.6636 N.2     1  UNL1       -0.0106
     34 C          63.5645   90.8781   11.2401 C.2     1  UNL1        0.3351
     35 N          64.1760   92.0440   10.5212 N.2     1  UNL1       -0.2103
     36 C          65.0254   92.7986   11.5004 C.3     1  UNL1        0.2404
@<TRIPOS>BOND
     1    16    17    1
     2    17    18    1
     3    17    13    1
     4    13    14   am
     5    14    15    2
     6    14     7    1
     7     7     8   ar
     8     8     9   ar
     9     9    10   ar
    10    10    11   ar
    11    11     1    1
    12     1     2   am
    13     2     3    2
    14     2     4   am
    15     4    22    1
    16    22    23   ar
    17    23    24   ar
    18    24    25   ar
    19    25    28    1
    20    28    29    2
    21    29    30    1
    22    30    31    2
    23    31    32    1
    24    32    33    2
    25    33    34    1
    26    34    35    2
    27    35    36    1
    28    25    26   ar
    29    26    27   ar
    30    11    12   ar
    31    13    19    1
    32    19    20    1
    33    19    21    1
    34    12     7   ar
    35    27    22   ar
    36    36    28    1
    37    36    32    1
    38     1     5    1
    39     4     6    1
