@<TRIPOS>MOLECULE
*****
 39 43 0 0 0
SMALL
GASTEIGER

@<TRIPOS>ATOM
      1 C          64.4087   90.9733   13.5289 C.3     1  UNL1        0.0791
      2 C          63.5687   90.1247   15.8363 C.ar    1  UNL1        0.1351
      3 C          63.2290   88.9916   16.7586 C.ar    1  UNL1        0.0366
      4 C          63.3897   87.5738   16.2958 C.ar    1  UNL1        0.0030
      5 C          63.0500   86.4407   17.2181 C.ar    1  UNL1        0.0008
      6 C          63.2107   85.0230   16.7552 C.ar    1  UNL1        0.0103
      7 C          63.7111   84.7384   15.3701 C.ar    1  UNL1        0.0684
      8 C          64.0508   85.8715   14.4478 C.ar    1  UNL1        0.0103
      9 C          63.8901   87.2892   14.9107 C.ar    1  UNL1        0.0006
     10 C          64.2298   88.4224   13.9883 C.ar    1  UNL1       -0.0009
     11 C          64.0691   89.8401   14.4512 C.ar    1  UNL1        0.0182
     12 C          64.5206   92.2190   17.0437 C.3     1  UNL1        0.2525
     13 O          63.4079   91.5425   16.2992 O.3     1  UNL1       -0.4717
     14 C          63.8719   83.3206   14.9073 C.1     1  UNL1        0.1004
     15 N          64.0325   81.9029   14.4445 N.1     1  UNL1       -0.1908
     16 C          65.5562   91.8841   13.8508 C.ar    1  UNL1       -0.0134
     17 C          65.4509   93.3529   13.5653 C.ar    1  UNL1       -0.0037
     18 C          66.5984   94.2637   13.8872 C.ar    1  UNL1        0.0020
     19 C          67.8513   93.7057   14.4947 C.ar    1  UNL1        0.0296
     20 C          67.9566   92.2369   14.7803 C.ar    1  UNL1        0.1398
     21 F          69.2095   91.6789   15.3877 F       1  UNL1       -0.2042
     22 C          66.8091   91.3261   14.4583 C.ar    1  UNL1        0.0258
     23 C          63.6009   91.1956   12.2847 C.3     1  UNL1        0.1474
     24 O          62.3890   90.6406   12.9725 O.3     1  UNL1       -0.3789
     25 H          61.8658   90.1245   12.3393 H       1  UNL1        0.2108
     26 C          64.8129   91.7506   11.5970 C.ar    1  UNL1        0.1474
     27 C          64.8672   93.0126   10.7880 C.ar    1  UNL1        0.0384
     28 C          66.2714   93.1829   10.2885 C.ar    1  UNL1        0.0373
     29 C          66.9142   94.2419    9.4427 C.ar    1  UNL1        0.0031
     30 C          68.3706   94.1442    9.0972 C.ar    1  UNL1        0.0002
     31 C          69.1842   92.9875    9.5976 C.ar    1  UNL1        0.0031
     32 C          68.5413   91.9285   10.4433 C.ar    1  UNL1        0.0375
     33 C          67.0849   92.0262   10.7888 C.ar    1  UNL1        0.1449
     34 O          66.1836   91.1410   11.5975 O.2     1  UNL1       -0.4554
     35 C          62.7931   91.4179   11.0406 C.3     1  UNL1        0.0522
     36 C          62.6112   90.3018   10.0551 C.3     1  UNL1        0.0751
     37 N          61.5954   89.2292   10.3158 N.3     1  UNL1       -0.2702
     38 C          62.0390   87.8720   10.7755 C.3     1  UNL1        0.0897
     39 C          60.1362   89.5138   10.1168 C.3     1  UNL1        0.0897
@<TRIPOS>BOND
     1    12    13    1
     2    13     2    1
     3     2     3   ar
     4     3     4   ar
     5     4     5   ar
     6     5     6   ar
     7     6     7   ar
     8     7    14    1
     9    14    15    3
    10     7     8   ar
    11     8     9   ar
    12     9    10   ar
    13    10    11   ar
    14     1    11    1
    15     1    16    1
    16    16    17   ar
    17    17    18   ar
    18    18    19   ar
    19    19    20   ar
    20    20    21    1
    21    20    22   ar
    22     1    23    1
    23    23    24    1
    24    23    35    1
    25    35    36    1
    26    36    37    1
    27    37    38    1
    28    37    39    1
    29    23    26    1
    30    26    27   ar
    31    27    28   ar
    32    28    29   ar
    33    29    30   ar
    34    30    31   ar
    35    31    32   ar
    36    32    33   ar
    37    33    34   ar
    38    11     2   ar
    39    22    16   ar
    40    34    26   ar
    41     9     4   ar
    42    33    28   ar
    43    24    25    1
@<TRIPOS>MOLECULE
*****
 39 43 0 0 0
SMALL
GASTEIGER

@<TRIPOS>ATOM
      1 C          62.2314   89.0626   12.2168 C.3     1  UNL1        0.0791
      2 C          63.7961   90.1499   13.9831 C.ar    1  UNL1        0.1351
      3 C          64.8484   91.1567   14.3419 C.ar    1  UNL1        0.0366
      4 C          65.3885   92.0834   13.2931 C.ar    1  UNL1        0.0030
      5 C          66.4408   93.0902   13.6519 C.ar    1  UNL1        0.0008
      6 C          66.9808   94.0168   12.6032 C.ar    1  UNL1        0.0103
      7 C          66.4685   93.9365   11.1957 C.ar    1  UNL1        0.0684
      8 C          65.4162   92.9296   10.8369 C.ar    1  UNL1        0.0103
      9 C          64.8762   92.0031   11.8856 C.ar    1  UNL1        0.0006
     10 C          63.8238   90.9961   11.5268 C.ar    1  UNL1       -0.0009
     11 C          63.2838   90.0695   12.5755 C.ar    1  UNL1        0.0182
     12 C          63.2184   89.6560   16.4675 C.3     1  UNL1        0.2525
     13 O          63.2561   89.2232   15.0318 O.3     1  UNL1       -0.4717
     14 C          67.0086   94.8631   10.1470 C.1     1  UNL1        0.1004
     15 N          67.5486   95.7897    9.0983 N.1     1  UNL1       -0.1908
     16 C          60.7830   89.4521   12.2366 C.ar    1  UNL1       -0.0134
     17 C          60.3268   90.6811   11.5078 C.ar    1  UNL1       -0.0037
     18 C          58.8784   91.0706   11.5276 C.ar    1  UNL1        0.0020
     19 C          57.8862   90.2310   12.2763 C.ar    1  UNL1        0.0296
     20 C          58.3423   89.0019   13.0052 C.ar    1  UNL1        0.1398
     21 F          57.3501   88.1623   13.7538 F       1  UNL1       -0.2042
     22 C          59.7908   88.6124   12.9853 C.ar    1  UNL1        0.0258
     23 C          62.6275   87.6663   11.8382 C.3     1  UNL1        0.1474
     24 O          63.5105   87.5887   13.0482 O.3     1  UNL1       -0.3789
     25 H          64.3142   87.0910   12.8306 H       1  UNL1        0.2108
     26 C          61.7444   87.7439   10.6282 C.ar    1  UNL1        0.1474
     27 C          60.8922   86.6349   10.0861 C.ar    1  UNL1        0.0384
     28 C          60.1796   87.1498    8.8706 C.ar    1  UNL1        0.0373
     29 C          59.2089   86.5034    7.9272 C.ar    1  UNL1        0.0031
     30 C          58.6500   87.2842    6.7748 C.ar    1  UNL1        0.0002
     31 C          59.0619   88.7114    6.5658 C.ar    1  UNL1        0.0031
     32 C          60.0326   89.3577    7.5091 C.ar    1  UNL1        0.0375
     33 C          60.5914   88.5769    8.6616 C.ar    1  UNL1        0.1449
     34 O          61.5585   88.9441    9.7478 O.2     1  UNL1       -0.4554
     35 C          63.0236   86.2700   11.4596 C.3     1  UNL1        0.0522
     36 C          62.8303   85.1454   12.4333 C.3     1  UNL1        0.0751
     37 N          63.9756   84.2353   12.7649 N.3     1  UNL1       -0.2702
     38 C          64.3711   83.1488   11.8093 C.3     1  UNL1        0.0897
     39 C          64.7253   84.4116   14.0520 C.3     1  UNL1        0.0897
@<TRIPOS>BOND
     1    12    13    1
     2    13     2    1
     3     2     3   ar
     4     3     4   ar
     5     4     5   ar
     6     5     6   ar
     7     6     7   ar
     8     7    14    1
     9    14    15    3
    10     7     8   ar
    11     8     9   ar
    12     9    10   ar
    13    10    11   ar
    14     1    11    1
    15     1    16    1
    16    16    17   ar
    17    17    18   ar
    18    18    19   ar
    19    19    20   ar
    20    20    21    1
    21    20    22   ar
    22     1    23    1
    23    23    24    1
    24    23    35    1
    25    35    36    1
    26    36    37    1
    27    37    38    1
    28    37    39    1
    29    23    26    1
    30    26    27   ar
    31    27    28   ar
    32    28    29   ar
    33    29    30   ar
    34    30    31   ar
    35    31    32   ar
    36    32    33   ar
    37    33    34   ar
    38    11     2   ar
    39    22    16   ar
    40    34    26   ar
    41     9     4   ar
    42    33    28   ar
    43    24    25    1
@<TRIPOS>MOLECULE
*****
 39 43 0 0 0
SMALL
GASTEIGER

@<TRIPOS>ATOM
      1 C          62.4436   89.0362   12.0395 C.3     1  UNL1        0.0791
      2 C          63.7836   87.9153   13.9626 C.ar    1  UNL1        0.1351
      3 C          64.3098   86.6798   14.6309 C.ar    1  UNL1        0.0366
      4 C          64.0223   85.3295   14.0442 C.ar    1  UNL1        0.0030
      5 C          64.5486   84.0940   14.7124 C.ar    1  UNL1        0.0008
      6 C          64.2611   82.7438   14.1258 C.ar    1  UNL1        0.0103
      7 C          63.4474   82.6291   12.8709 C.ar    1  UNL1        0.0684
      8 C          62.9212   83.8646   12.2027 C.ar    1  UNL1        0.0103
      9 C          63.2086   85.2148   12.7893 C.ar    1  UNL1        0.0006
     10 C          62.6824   86.4504   12.1211 C.ar    1  UNL1       -0.0009
     11 C          62.9699   87.8006   12.7077 C.ar    1  UNL1        0.0182
     12 C          63.4535   89.6618   15.8576 C.3     1  UNL1        0.2525
     13 O          64.0710   89.2656   14.5493 O.3     1  UNL1       -0.4717
     14 C          63.1599   81.2787   12.2843 C.1     1  UNL1        0.1004
     15 N          62.8724   79.9285   11.6977 N.1     1  UNL1       -0.1908
     16 C          63.3713   90.1728   11.7270 C.ar    1  UNL1       -0.0134
     17 C          63.3331   90.8222   10.3754 C.ar    1  UNL1       -0.0037
     18 C          64.2607   91.9587   10.0629 C.ar    1  UNL1        0.0020
     19 C          65.2266   92.4459   11.1020 C.ar    1  UNL1        0.0296
     20 C          65.2649   91.7965   12.4537 C.ar    1  UNL1        0.1398
     21 F          66.2307   92.2837   13.4927 F       1  UNL1       -0.2042
     22 C          64.3372   90.6599   12.7662 C.ar    1  UNL1        0.0258
     23 C          60.9898   89.1352   11.6838 C.3     1  UNL1        0.1474
     24 O          60.7856   90.1234   12.7936 O.3     1  UNL1       -0.3789
     25 H          59.9208   89.9723   13.2061 H       1  UNL1        0.2108
     26 C          61.1940   88.1469   10.5741 C.ar    1  UNL1        0.1474
     27 C          60.1276   87.6037    9.6698 C.ar    1  UNL1        0.0384
     28 C          60.7752   86.6494    8.7106 C.ar    1  UNL1        0.0373
     29 C          60.2187   85.8167    7.5938 C.ar    1  UNL1        0.0031
     30 C          61.1289   84.9376    6.7884 C.ar    1  UNL1        0.0002
     31 C          62.5955   84.8911    7.0998 C.ar    1  UNL1        0.0031
     32 C          63.1519   85.7237    8.2165 C.ar    1  UNL1        0.0375
     33 C          62.2417   86.6028    9.0220 C.ar    1  UNL1        0.1449
     34 O          62.5006   87.5283   10.1736 O.2     1  UNL1       -0.4554
     35 C          59.5360   89.2342   11.3281 C.3     1  UNL1        0.0522
     36 C          58.5514   89.7525   12.3340 C.3     1  UNL1        0.0751
     37 N          57.9771   88.8283   13.3666 N.3     1  UNL1       -0.2702
     38 C          56.6224   88.2192   13.1575 C.3     1  UNL1        0.0897
     39 C          58.7576   88.5132   14.6082 C.3     1  UNL1        0.0897
@<TRIPOS>BOND
     1    12    13    1
     2    13     2    1
     3     2     3   ar
     4     3     4   ar
     5     4     5   ar
     6     5     6   ar
     7     6     7   ar
     8     7    14    1
     9    14    15    3
    10     7     8   ar
    11     8     9   ar
    12     9    10   ar
    13    10    11   ar
    14     1    11    1
    15     1    16    1
    16    16    17   ar
    17    17    18   ar
    18    18    19   ar
    19    19    20   ar
    20    20    21    1
    21    20    22   ar
    22     1    23    1
    23    23    24    1
    24    23    35    1
    25    35    36    1
    26    36    37    1
    27    37    38    1
    28    37    39    1
    29    23    26    1
    30    26    27   ar
    31    27    28   ar
    32    28    29   ar
    33    29    30   ar
    34    30    31   ar
    35    31    32   ar
    36    32    33   ar
    37    33    34   ar
    38    11     2   ar
    39    22    16   ar
    40    34    26   ar
    41     9     4   ar
    42    33    28   ar
    43    24    25    1
@<TRIPOS>MOLECULE
*****
 39 43 0 0 0
SMALL
GASTEIGER

@<TRIPOS>ATOM
      1 C          62.3442   88.5424   12.3129 C.3     1  UNL1        0.0791
      2 C          63.8338   89.9540   13.9061 C.ar    1  UNL1        0.1351
      3 C          64.7942   91.0853   14.1241 C.ar    1  UNL1        0.0366
      4 C          65.2257   91.9365   12.9667 C.ar    1  UNL1        0.0030
      5 C          66.1862   93.0678   13.1847 C.ar    1  UNL1        0.0008
      6 C          66.6176   93.9189   12.0274 C.ar    1  UNL1        0.0103
      7 C          66.0885   93.6386   10.6520 C.ar    1  UNL1        0.0684
      8 C          65.1280   92.5073   10.4340 C.ar    1  UNL1        0.0103
      9 C          64.6966   91.6562   11.5914 C.ar    1  UNL1        0.0006
     10 C          63.7361   90.5248   11.3735 C.ar    1  UNL1       -0.0009
     11 C          63.3047   89.6738   12.5308 C.ar    1  UNL1        0.0182
     12 C          63.2208   89.7174   16.4198 C.3     1  UNL1        0.2525
     13 O          63.4023   89.1029   15.0635 O.3     1  UNL1       -0.4717
     14 C          66.5199   94.4898    9.4946 C.1     1  UNL1        0.1004
     15 N          66.9514   95.3408    8.3373 N.1     1  UNL1       -0.1908
     16 C          62.7619   87.1345   12.6183 C.ar    1  UNL1       -0.0134
     17 C          61.9765   85.9824   12.0654 C.ar    1  UNL1       -0.0037
     18 C          62.3943   84.5745   12.3708 C.ar    1  UNL1        0.0020
     19 C          63.5975   84.3187   13.2292 C.ar    1  UNL1        0.0296
     20 C          64.3830   85.4708   13.7821 C.ar    1  UNL1        0.1398
     21 F          65.5862   85.2150   14.6405 F       1  UNL1       -0.2042
     22 C          63.9652   86.8787   13.4767 C.ar    1  UNL1        0.0258
     23 C          60.9659   88.8189   11.7895 C.3     1  UNL1        0.1474
     24 O          60.7121   89.7410   12.9451 O.3     1  UNL1       -0.3789
     25 H          59.7901   89.6524   13.2330 H       1  UNL1        0.2108
     26 C          61.2197   87.8969   10.6340 C.ar    1  UNL1        0.1474
     27 C          60.1848   87.3616    9.6893 C.ar    1  UNL1        0.0384
     28 C          60.8785   86.4821    8.6916 C.ar    1  UNL1        0.0373
     29 C          60.3665   85.6877    7.5268 C.ar    1  UNL1        0.0031
     30 C          61.3181   84.8849    6.6901 C.ar    1  UNL1        0.0002
     31 C          62.7818   84.8766    7.0183 C.ar    1  UNL1        0.0031
     32 C          63.2938   85.6710    8.1831 C.ar    1  UNL1        0.0375
     33 C          62.3422   86.4737    9.0198 C.ar    1  UNL1        0.1449
     34 O          62.5530   87.3481   10.2202 O.2     1  UNL1       -0.4554
     35 C          59.5877   89.0954   11.2662 C.3     1  UNL1        0.0522
     36 C          58.5435   89.6760   12.1732 C.3     1  UNL1        0.0751
     37 N          57.9269   88.8284   13.2462 N.3     1  UNL1       -0.2702
     38 C          56.5521   88.2597   13.0553 C.3     1  UNL1        0.0897
     39 C          58.6850   88.5495   14.5100 C.3     1  UNL1        0.0897
@<TRIPOS>BOND
     1    12    13    1
     2    13     2    1
     3     2     3   ar
     4     3     4   ar
     5     4     5   ar
     6     5     6   ar
     7     6     7   ar
     8     7    14    1
     9    14    15    3
    10     7     8   ar
    11     8     9   ar
    12     9    10   ar
    13    10    11   ar
    14     1    11    1
    15     1    16    1
    16    16    17   ar
    17    17    18   ar
    18    18    19   ar
    19    19    20   ar
    20    20    21    1
    21    20    22   ar
    22     1    23    1
    23    23    24    1
    24    23    35    1
    25    35    36    1
    26    36    37    1
    27    37    38    1
    28    37    39    1
    29    23    26    1
    30    26    27   ar
    31    27    28   ar
    32    28    29   ar
    33    29    30   ar
    34    30    31   ar
    35    31    32   ar
    36    32    33   ar
    37    33    34   ar
    38    11     2   ar
    39    22    16   ar
    40    34    26   ar
    41     9     4   ar
    42    33    28   ar
    43    24    25    1
@<TRIPOS>MOLECULE
*****
 39 43 0 0 0
SMALL
GASTEIGER

@<TRIPOS>ATOM
      1 C          61.9883   89.2780   11.1708 C.3     1  UNL1        0.0791
      2 C          63.3727   90.3711   13.0784 C.ar    1  UNL1        0.1351
      3 C          64.4212   91.3445   13.5289 C.ar    1  UNL1        0.0366
      4 C          65.1339   92.1984   12.5225 C.ar    1  UNL1        0.0030
      5 C          66.1824   93.1718   12.9730 C.ar    1  UNL1        0.0008
      6 C          66.8951   94.0257   11.9666 C.ar    1  UNL1        0.0103
      7 C          66.5593   93.9061   10.5096 C.ar    1  UNL1        0.0684
      8 C          65.5108   92.9327   10.0590 C.ar    1  UNL1        0.0103
      9 C          64.7981   92.0788   11.0654 C.ar    1  UNL1        0.0006
     10 C          63.7496   91.1053   10.6149 C.ar    1  UNL1       -0.0009
     11 C          63.0369   90.2515   11.6213 C.ar    1  UNL1        0.0182
     12 C          62.9809   89.6516   15.5439 C.3     1  UNL1        0.2525
     13 O          62.6599   89.5172   14.0848 O.3     1  UNL1       -0.4717
     14 C          67.2720   94.7600    9.5031 C.1     1  UNL1        0.1004
     15 N          67.9848   95.6139    8.4967 N.1     1  UNL1       -0.1908
     16 C          60.5661   89.4481   11.6161 C.ar    1  UNL1       -0.0134
     17 C          59.8458   88.3102   12.2766 C.ar    1  UNL1       -0.0037
     18 C          58.4236   88.4804   12.7220 C.ar    1  UNL1        0.0020
     19 C          57.7217   89.7884   12.5069 C.ar    1  UNL1        0.0296
     20 C          58.4419   90.9264   11.8463 C.ar    1  UNL1        0.1398
     21 F          57.7400   92.2344   11.6312 F       1  UNL1       -0.2042
     22 C          59.8642   90.7563   11.4010 C.ar    1  UNL1        0.0258
     23 C          62.3620   88.1345   10.2749 C.3     1  UNL1        0.1474
     24 O          62.0137   88.9620    9.0733 O.3     1  UNL1       -0.3789
     25 H          61.6031   88.3974    8.3998 H       1  UNL1        0.2108
     26 C          62.7103   87.3070   11.4765 C.ar    1  UNL1        0.1474
     27 C          62.1883   85.9346   11.7833 C.ar    1  UNL1        0.0384
     28 C          62.7972   85.4860   13.0787 C.ar    1  UNL1        0.0373
     29 C          62.6497   84.2218   13.8725 C.ar    1  UNL1        0.0031
     30 C          63.4006   84.0526   15.1600 C.ar    1  UNL1        0.0002
     31 C          64.2989   85.1478   15.6537 C.ar    1  UNL1        0.0031
     32 C          64.4464   86.4119   14.8600 C.ar    1  UNL1        0.0375
     33 C          63.6956   86.5811   13.5725 C.ar    1  UNL1        0.1449
     34 O          63.6419   87.7065   12.5823 O.2     1  UNL1       -0.4554
     35 C          62.7357   86.9910    9.3790 C.3     1  UNL1        0.0522
     36 C          61.7461   85.8970    9.1069 C.3     1  UNL1        0.0751
     37 N          60.9044   85.9387    7.8660 N.3     1  UNL1       -0.2702
     38 C          59.6819   86.8067    7.8179 C.3     1  UNL1        0.0897
     39 C          61.2850   85.1126    6.6733 C.3     1  UNL1        0.0897
@<TRIPOS>BOND
     1    12    13    1
     2    13     2    1
     3     2     3   ar
     4     3     4   ar
     5     4     5   ar
     6     5     6   ar
     7     6     7   ar
     8     7    14    1
     9    14    15    3
    10     7     8   ar
    11     8     9   ar
    12     9    10   ar
    13    10    11   ar
    14     1    11    1
    15     1    16    1
    16    16    17   ar
    17    17    18   ar
    18    18    19   ar
    19    19    20   ar
    20    20    21    1
    21    20    22   ar
    22     1    23    1
    23    23    24    1
    24    23    35    1
    25    35    36    1
    26    36    37    1
    27    37    38    1
    28    37    39    1
    29    23    26    1
    30    26    27   ar
    31    27    28   ar
    32    28    29   ar
    33    29    30   ar
    34    30    31   ar
    35    31    32   ar
    36    32    33   ar
    37    33    34   ar
    38    11     2   ar
    39    22    16   ar
    40    34    26   ar
    41     9     4   ar
    42    33    28   ar
    43    24    25    1
@<TRIPOS>MOLECULE
*****
 39 43 0 0 0
SMALL
GASTEIGER

@<TRIPOS>ATOM
      1 C          63.5492   90.4412   12.5715 C.3     1  UNL1        0.0791
      2 C          63.4381   89.8265   15.0933 C.ar    1  UNL1        0.1351
      3 C          63.4593   88.7935   16.1808 C.ar    1  UNL1        0.0366
      4 C          63.6131   87.3423   15.8339 C.ar    1  UNL1        0.0030
      5 C          63.6344   86.3094   16.9213 C.ar    1  UNL1        0.0008
      6 C          63.7881   84.8582   16.5744 C.ar    1  UNL1        0.0103
      7 C          63.9206   84.4399   15.1400 C.ar    1  UNL1        0.0684
      8 C          63.8993   85.4729   14.0525 C.ar    1  UNL1        0.0103
      9 C          63.7456   86.9240   14.3995 C.ar    1  UNL1        0.0006
     10 C          63.7243   87.9570   13.3120 C.ar    1  UNL1       -0.0009
     11 C          63.5705   89.4082   13.6589 C.ar    1  UNL1        0.0182
     12 C          64.1906   91.9058   16.4571 C.3     1  UNL1        0.2525
     13 O          63.2843   91.2777   15.4403 O.3     1  UNL1       -0.4717
     14 C          64.0743   82.9887   14.7930 C.1     1  UNL1        0.1004
     15 N          64.2280   81.5375   14.4461 N.1     1  UNL1       -0.1908
     16 C          64.7915   91.2183   12.2508 C.ar    1  UNL1       -0.0134
     17 C          64.9308   91.8936   10.9187 C.ar    1  UNL1       -0.0037
     18 C          66.1731   92.6707   10.5981 C.ar    1  UNL1        0.0020
     19 C          67.2761   92.7725   11.6095 C.ar    1  UNL1        0.0296
     20 C          67.1368   92.0971   12.9416 C.ar    1  UNL1        0.1398
     21 F          68.2398   92.1989   13.9531 F       1  UNL1       -0.2042
     22 C          65.8945   91.3200   13.2623 C.ar    1  UNL1        0.0258
     23 C          62.2857   90.6971   11.8047 C.3     1  UNL1        0.1474
     24 O          62.2276   92.0875   12.3644 O.3     1  UNL1       -0.3789
     25 H          61.3040   92.3279   12.5378 H       1  UNL1        0.2108
     26 C          62.3438   89.3066   11.2450 C.ar    1  UNL1        0.1474
     27 C          62.8195   88.9272    9.8740 C.ar    1  UNL1        0.0384
     28 C          62.7061   87.4375    9.7398 C.ar    1  UNL1        0.0373
     29 C          63.0293   86.5040    8.6110 C.ar    1  UNL1        0.0031
     30 C          62.8067   85.0292    8.7703 C.ar    1  UNL1        0.0002
     31 C          62.2608   84.4879   10.0584 C.ar    1  UNL1        0.0031
     32 C          61.9375   85.4214   11.1871 C.ar    1  UNL1        0.0375
     33 C          62.1602   86.8962   11.0278 C.ar    1  UNL1        0.1449
     34 O          61.9363   88.0514   11.9581 O.2     1  UNL1       -0.4554
     35 C          61.0221   90.9529   11.0380 C.3     1  UNL1        0.0522
     36 C          59.6903   90.7472   11.6968 C.3     1  UNL1        0.0751
     37 N          59.0630   89.3848   11.7108 N.3     1  UNL1       -0.2702
     38 C          58.3657   88.8928   12.9445 C.3     1  UNL1        0.0897
     39 C          59.1328   88.5143   10.4913 C.3     1  UNL1        0.0897
@<TRIPOS>BOND
     1    12    13    1
     2    13     2    1
     3     2     3   ar
     4     3     4   ar
     5     4     5   ar
     6     5     6   ar
     7     6     7   ar
     8     7    14    1
     9    14    15    3
    10     7     8   ar
    11     8     9   ar
    12     9    10   ar
    13    10    11   ar
    14     1    11    1
    15     1    16    1
    16    16    17   ar
    17    17    18   ar
    18    18    19   ar
    19    19    20   ar
    20    20    21    1
    21    20    22   ar
    22     1    23    1
    23    23    24    1
    24    23    35    1
    25    35    36    1
    26    36    37    1
    27    37    38    1
    28    37    39    1
    29    23    26    1
    30    26    27   ar
    31    27    28   ar
    32    28    29   ar
    33    29    30   ar
    34    30    31   ar
    35    31    32   ar
    36    32    33   ar
    37    33    34   ar
    38    11     2   ar
    39    22    16   ar
    40    34    26   ar
    41     9     4   ar
    42    33    28   ar
    43    24    25    1
@<TRIPOS>MOLECULE
*****
 39 43 0 0 0
SMALL
GASTEIGER

@<TRIPOS>ATOM
      1 C          63.1961   89.6228   12.8857 C.3     1  UNL1        0.0791
      2 C          60.7834   89.0322   12.1239 C.ar    1  UNL1        0.1351
      3 C          59.8552   88.3290   11.1784 C.ar    1  UNL1        0.0366
      4 C          60.4114   87.5131   10.0493 C.ar    1  UNL1        0.0030
      5 C          59.4832   86.8099    9.1038 C.ar    1  UNL1        0.0008
      6 C          60.0394   85.9940    7.9747 C.ar    1  UNL1        0.0103
      7 C          61.5239   85.8813    7.7910 C.ar    1  UNL1        0.0684
      8 C          62.4521   86.5846    8.7365 C.ar    1  UNL1        0.0103
      9 C          61.8959   87.4004    9.8656 C.ar    1  UNL1        0.0006
     10 C          62.8241   88.1037   10.8111 C.ar    1  UNL1       -0.0009
     11 C          62.2679   88.9195   11.9402 C.ar    1  UNL1        0.0182
     12 C          59.0918   89.3147   14.0754 C.3     1  UNL1        0.2525
     13 O          60.2272   89.8481   13.2531 O.3     1  UNL1       -0.4717
     14 C          62.0801   85.0654    6.6619 C.1     1  UNL1        0.1004
     15 N          62.6363   84.2495    5.5327 N.1     1  UNL1       -0.1908
     16 C          64.1281   90.6807   12.3736 C.ar    1  UNL1       -0.0134
     17 C          63.8731   91.3249   11.0433 C.ar    1  UNL1       -0.0037
     18 C          64.8052   92.3828   10.5313 C.ar    1  UNL1        0.0020
     19 C          65.9922   92.7965   11.3496 C.ar    1  UNL1        0.0296
     20 C          66.2473   92.1522   12.6800 C.ar    1  UNL1        0.1398
     21 F          67.4344   92.5659   13.4983 F       1  UNL1       -0.2042
     22 C          65.3153   91.0943   13.1921 C.ar    1  UNL1        0.0258
     23 C          63.1923   89.2682   14.3431 C.3     1  UNL1        0.1474
     24 O          62.9282   90.7030   14.6916 O.3     1  UNL1       -0.3789
     25 H          63.4111   90.9334   15.5006 H       1  UNL1        0.2108
     26 C          63.4563   87.8333   13.9947 C.ar    1  UNL1        0.1474
     27 C          64.5571   86.9792   14.5504 C.ar    1  UNL1        0.0384
     28 C          64.4470   85.6186   13.9284 C.ar    1  UNL1        0.0373
     29 C          65.2601   84.3694   14.0967 C.ar    1  UNL1        0.0031
     30 C          64.9044   83.1333   13.3249 C.ar    1  UNL1        0.0002
     31 C          63.7355   83.1466   12.3848 C.ar    1  UNL1        0.0031
     32 C          62.9225   84.3958   12.2165 C.ar    1  UNL1        0.0375
     33 C          63.2782   85.6318   12.9884 C.ar    1  UNL1        0.1449
     34 O          62.6659   87.0006   13.0293 O.2     1  UNL1       -0.4554
     35 C          63.1884   88.9135   15.8006 C.3     1  UNL1        0.0522
     36 C          62.0210   88.1794   16.3907 C.3     1  UNL1        0.0751
     37 N          62.2440   86.9118   17.1613 N.3     1  UNL1       -0.2702
     38 C          62.7822   86.9694   18.5602 C.3     1  UNL1        0.0897
     39 C          61.9288   85.5868   16.5328 C.3     1  UNL1        0.0897
@<TRIPOS>BOND
     1    12    13    1
     2    13     2    1
     3     2     3   ar
     4     3     4   ar
     5     4     5   ar
     6     5     6   ar
     7     6     7   ar
     8     7    14    1
     9    14    15    3
    10     7     8   ar
    11     8     9   ar
    12     9    10   ar
    13    10    11   ar
    14     1    11    1
    15     1    16    1
    16    16    17   ar
    17    17    18   ar
    18    18    19   ar
    19    19    20   ar
    20    20    21    1
    21    20    22   ar
    22     1    23    1
    23    23    24    1
    24    23    35    1
    25    35    36    1
    26    36    37    1
    27    37    38    1
    28    37    39    1
    29    23    26    1
    30    26    27   ar
    31    27    28   ar
    32    28    29   ar
    33    29    30   ar
    34    30    31   ar
    35    31    32   ar
    36    32    33   ar
    37    33    34   ar
    38    11     2   ar
    39    22    16   ar
    40    34    26   ar
    41     9     4   ar
    42    33    28   ar
    43    24    25    1
@<TRIPOS>MOLECULE
*****
 39 43 0 0 0
SMALL
GASTEIGER

@<TRIPOS>ATOM
      1 C          63.0777   87.5973   12.9803 C.3     1  UNL1        0.0791
      2 C          64.1717   89.2729   14.6372 C.ar    1  UNL1        0.1351
      3 C          64.8632   90.5783   14.8974 C.ar    1  UNL1        0.0366
      4 C          65.1523   91.5135   13.7608 C.ar    1  UNL1        0.0030
      5 C          65.8439   92.8189   14.0210 C.ar    1  UNL1        0.0008
      6 C          66.1329   93.7540   12.8845 C.ar    1  UNL1        0.0103
      7 C          65.7305   93.3838   11.4877 C.ar    1  UNL1        0.0684
      8 C          65.0390   92.0785   11.2275 C.ar    1  UNL1        0.0103
      9 C          64.7499   91.1433   12.3641 C.ar    1  UNL1        0.0006
     10 C          64.0583   89.8379   12.1039 C.ar    1  UNL1       -0.0009
     11 C          63.7692   88.9027   13.2405 C.ar    1  UNL1        0.0182
     12 C          63.0635   88.8054   16.9402 C.3     1  UNL1        0.2525
     13 O          63.8825   88.3377   15.7739 O.3     1  UNL1       -0.4717
     14 C          66.0196   94.3191   10.3511 C.1     1  UNL1        0.1004
     15 N          66.3087   95.2542    9.2145 N.1     1  UNL1       -0.1908
     16 C          63.4865   86.3682   13.7367 C.ar    1  UNL1       -0.0134
     17 C          64.8405   85.7639   13.5103 C.ar    1  UNL1       -0.0037
     18 C          65.2493   84.5348   14.2667 C.ar    1  UNL1        0.0020
     19 C          64.3041   83.9100   15.2496 C.ar    1  UNL1        0.0296
     20 C          62.9500   84.5143   15.4761 C.ar    1  UNL1        0.1398
     21 F          62.0047   83.8895   16.4590 F       1  UNL1       -0.2042
     22 C          62.5411   85.7434   14.7197 C.ar    1  UNL1        0.0258
     23 C          61.9773   87.5209   11.9637 C.3     1  UNL1        0.1474
     24 O          61.6234   88.9523   12.2394 O.3     1  UNL1       -0.3789
     25 H          60.6606   89.0615   12.1956 H       1  UNL1        0.2108
     26 C          62.3312   86.0896   11.6881 C.ar    1  UNL1        0.1474
     27 C          63.2164   85.5976   10.5816 C.ar    1  UNL1        0.0384
     28 C          63.2943   84.1028   10.6803 C.ar    1  UNL1        0.0373
     29 C          64.0193   83.0791    9.8578 C.ar    1  UNL1        0.0031
     30 C          63.9073   81.6236   10.2028 C.ar    1  UNL1        0.0002
     31 C          63.0703   81.1919   11.3704 C.ar    1  UNL1        0.0031
     32 C          62.3454   82.2156   12.1928 C.ar    1  UNL1        0.0375
     33 C          62.4574   83.6710   11.8478 C.ar    1  UNL1        0.1449
     34 O          61.8621   84.8989   12.4707 O.2     1  UNL1       -0.4554
     35 C          60.8770   87.4446   10.9472 C.3     1  UNL1        0.0522
     36 C          60.9153   88.3245    9.7330 C.3     1  UNL1        0.0751
     37 N          60.1600   87.9317    8.4979 N.3     1  UNL1       -0.2702
     38 C          59.9394   86.4818    8.1832 C.3     1  UNL1        0.0897
     39 C          59.6254   88.9887    7.5778 C.3     1  UNL1        0.0897
@<TRIPOS>BOND
     1    12    13    1
     2    13     2    1
     3     2     3   ar
     4     3     4   ar
     5     4     5   ar
     6     5     6   ar
     7     6     7   ar
     8     7    14    1
     9    14    15    3
    10     7     8   ar
    11     8     9   ar
    12     9    10   ar
    13    10    11   ar
    14     1    11    1
    15     1    16    1
    16    16    17   ar
    17    17    18   ar
    18    18    19   ar
    19    19    20   ar
    20    20    21    1
    21    20    22   ar
    22     1    23    1
    23    23    24    1
    24    23    35    1
    25    35    36    1
    26    36    37    1
    27    37    38    1
    28    37    39    1
    29    23    26    1
    30    26    27   ar
    31    27    28   ar
    32    28    29   ar
    33    29    30   ar
    34    30    31   ar
    35    31    32   ar
    36    32    33   ar
    37    33    34   ar
    38    11     2   ar
    39    22    16   ar
    40    34    26   ar
    41     9     4   ar
    42    33    28   ar
    43    24    25    1
@<TRIPOS>MOLECULE
*****
 39 43 0 0 0
SMALL
GASTEIGER

@<TRIPOS>ATOM
      1 C          62.0714   89.0981   11.9291 C.3     1  UNL1        0.0791
      2 C          63.9672   89.7234   13.5920 C.ar    1  UNL1        0.1351
      3 C          65.1291   90.5935   13.9697 C.ar    1  UNL1        0.0366
      4 C          65.5573   91.7087   13.0623 C.ar    1  UNL1        0.0030
      5 C          66.7192   92.5788   13.4401 C.ar    1  UNL1        0.0008
      6 C          67.1473   93.6939   12.5327 C.ar    1  UNL1        0.0103
      7 C          66.4135   93.9388   11.2476 C.ar    1  UNL1        0.0684
      8 C          65.2515   93.0687   10.8699 C.ar    1  UNL1        0.0103
      9 C          64.8234   91.9536   11.7772 C.ar    1  UNL1        0.0006
     10 C          63.6615   91.0834   11.3995 C.ar    1  UNL1       -0.0009
     11 C          63.2334   89.9683   12.3069 C.ar    1  UNL1        0.0182
     12 C          64.4770   87.4737   14.7874 C.3     1  UNL1        0.2525
     13 O          63.5391   88.6083   14.4993 O.3     1  UNL1       -0.4717
     14 C          66.8416   95.0539   10.3403 C.1     1  UNL1        0.1004
     15 N          67.2697   96.1690    9.4330 N.1     1  UNL1       -0.1908
     16 C          62.3112   87.7643   11.2861 C.ar    1  UNL1       -0.0134
     17 C          62.6552   87.6855    9.8283 C.ar    1  UNL1       -0.0037
     18 C          62.8949   86.3517    9.1852 C.ar    1  UNL1        0.0020
     19 C          62.7907   85.0967   10.0001 C.ar    1  UNL1        0.0296
     20 C          62.4467   85.1754   11.4580 C.ar    1  UNL1        0.1398
     21 F          62.3424   83.9204   12.2729 F       1  UNL1       -0.2042
     22 C          62.2069   86.5092   12.1011 C.ar    1  UNL1        0.0258
     23 C          60.6698   89.5617   12.1944 C.3     1  UNL1        0.1474
     24 O          61.0376   89.8592   13.6178 O.3     1  UNL1       -0.3789
     25 H          60.2922   89.6372   14.1975 H       1  UNL1        0.2108
     26 C          60.3020   89.2642   10.7710 C.ar    1  UNL1        0.1474
     27 C          60.3654   90.2287    9.6239 C.ar    1  UNL1        0.0384
     28 C          59.9088   89.5105    8.3887 C.ar    1  UNL1        0.0373
     29 C          59.7631   89.9570    6.9640 C.ar    1  UNL1        0.0031
     30 C          59.2717   88.9952    5.9231 C.ar    1  UNL1        0.0002
     31 C          58.9260   87.5869    6.3068 C.ar    1  UNL1        0.0031
     32 C          59.0717   87.1404    7.7314 C.ar    1  UNL1        0.0375
     33 C          59.5631   88.1022    8.7723 C.ar    1  UNL1        0.1449
     34 O          59.8061   87.9500   10.2446 O.2     1  UNL1       -0.4554
     35 C          59.2681   90.0253   12.4597 C.3     1  UNL1        0.0522
     36 C          58.1165   89.0856   12.2581 C.3     1  UNL1        0.0751
     37 N          57.5027   88.3881   13.4357 N.3     1  UNL1       -0.2702
     38 C          58.3147   88.1524   14.6747 C.3     1  UNL1        0.0897
     39 C          56.0769   87.9263   13.3744 C.3     1  UNL1        0.0897
@<TRIPOS>BOND
     1    12    13    1
     2    13     2    1
     3     2     3   ar
     4     3     4   ar
     5     4     5   ar
     6     5     6   ar
     7     6     7   ar
     8     7    14    1
     9    14    15    3
    10     7     8   ar
    11     8     9   ar
    12     9    10   ar
    13    10    11   ar
    14     1    11    1
    15     1    16    1
    16    16    17   ar
    17    17    18   ar
    18    18    19   ar
    19    19    20   ar
    20    20    21    1
    21    20    22   ar
    22     1    23    1
    23    23    24    1
    24    23    35    1
    25    35    36    1
    26    36    37    1
    27    37    38    1
    28    37    39    1
    29    23    26    1
    30    26    27   ar
    31    27    28   ar
    32    28    29   ar
    33    29    30   ar
    34    30    31   ar
    35    31    32   ar
    36    32    33   ar
    37    33    34   ar
    38    11     2   ar
    39    22    16   ar
    40    34    26   ar
    41     9     4   ar
    42    33    28   ar
    43    24    25    1
