@<TRIPOS>MOLECULE
*****
 29 30 0 0 0
SMALL
GASTEIGER

@<TRIPOS>ATOM
      1 O          61.3790   89.0737   11.9028 O.3     1  UNL1       -0.4504
      2 C          64.8657   91.8870   12.3241 C.ar    1  UNL1       -0.0099
      3 C          64.4107   91.0751   13.5004 C.ar    1  UNL1       -0.0002
      4 C          63.2485   90.1373   13.3600 C.ar    1  UNL1        0.0372
      5 C          62.5412   90.0115   12.0432 C.ar    1  UNL1        0.1454
      6 C          62.9962   90.8234   10.8669 C.ar    1  UNL1        0.0372
      7 C          64.1585   91.7611   11.0074 C.ar    1  UNL1       -0.0002
      8 C          66.0280   92.8248   12.4646 C.3     1  UNL1        0.0917
      9 C          68.7217   92.5471   16.0586 C.3     1  UNL1        0.0900
     10 C          67.8238   92.6397   14.8606 C.1     1  UNL1       -0.0897
     11 C          66.9259   92.7322   13.6626 C.1     1  UNL1       -0.0872
     12 C          66.2924   93.8552   11.4071 C.3     1  UNL1        0.0591
     13 C          67.2858   93.5750   10.3186 C.2     1  UNL1        0.0517
     14 O          67.9790   94.7103    9.6255 O.co2   1  UNL1       -0.5491
     15 O          67.5859   92.1594    9.9233 O.co2   1  UNL1       -0.5491
     16 C          61.3266   88.1111   10.7536 C.ar    1  UNL1        0.1791
     17 C          60.5535   88.4611    9.5167 C.ar    1  UNL1        0.0406
     18 C          60.5011   87.4984    8.3675 C.ar    1  UNL1        0.0072
     19 C          61.2218   86.1858    8.4552 C.ar    1  UNL1        0.0746
     20 C          61.9949   85.8358    9.6920 C.ar    1  UNL1        0.0441
     21 C          62.0473   86.7985   10.8413 C.ar    1  UNL1        0.1785
     22 C          61.1694   85.2232    7.3060 C.3     1  UNL1        0.4187
     23 F          61.1169   84.2607    6.1568 F       1  UNL1       -0.1659
     24 F          62.6584   85.0569    7.3773 F       1  UNL1       -0.1659
     25 F          59.6804   85.3895    7.2347 F       1  UNL1       -0.1659
     26 O          62.8203   86.4485   12.0781 O.3     1  UNL1       -0.4205
     27 C          62.9388   85.0164   12.5084 C.3     1  UNL1        0.5087
     28 F          63.7612   84.0563   11.7011 F       1  UNL1       -0.1550
     29 F          62.2348   84.5445   13.7460 F       1  UNL1       -0.1550
@<TRIPOS>UNITY_ATOM_ATTR
14 1
charge -1
@<TRIPOS>BOND
     1     9    10    1
     2    10    11    3
     3    11     8    1
     4     8    12    1
     5    12    13    1
     6    13    14   ar
     7    13    15   ar
     8     8     2    1
     9     2     3   ar
    10     3     4   ar
    11     4     5   ar
    12     5     1    1
    13     1    16    1
    14    16    17   ar
    15    17    18   ar
    16    18    19   ar
    17    19    22    1
    18    22    23    1
    19    22    24    1
    20    22    25    1
    21    19    20   ar
    22    20    21   ar
    23    21    26    1
    24    26    27    1
    25    27    28    1
    26    27    29    1
    27     5     6   ar
    28     6     7   ar
    29     7     2   ar
    30    21    16   ar
@<TRIPOS>MOLECULE
*****
 29 30 0 0 0
SMALL
GASTEIGER

@<TRIPOS>ATOM
      1 O          61.4077   89.0349   11.8900 O.3     1  UNL1       -0.4504
      2 C          64.8433   91.9122   12.2994 C.ar    1  UNL1       -0.0099
      3 C          64.3973   91.1036   13.4814 C.ar    1  UNL1       -0.0002
      4 C          63.2521   90.1445   13.3449 C.ar    1  UNL1        0.0372
      5 C          62.5529   89.9940   12.0264 C.ar    1  UNL1        0.1454
      6 C          62.9990   90.8025   10.8444 C.ar    1  UNL1        0.0372
      7 C          64.1442   91.7616   10.9809 C.ar    1  UNL1       -0.0002
      8 C          65.9885   92.8713   12.4359 C.3     1  UNL1        0.0917
      9 C          67.4644   95.1396    8.8406 C.3     1  UNL1        0.0900
     10 C          66.9725   94.3835   10.0390 C.1     1  UNL1       -0.0897
     11 C          66.4805   93.6274   11.2375 C.1     1  UNL1       -0.0872
     12 C          66.6418   93.0743   13.7708 C.3     1  UNL1        0.0591
     13 C          67.8422   92.2588   14.1501 C.2     1  UNL1        0.0517
     14 O          68.0594   91.8643   15.5809 O.co2   1  UNL1       -0.5491
     15 O          68.8256   91.8377   13.0985 O.co2   1  UNL1       -0.5491
     16 C          61.3701   88.0702   10.7420 C.ar    1  UNL1        0.1791
     17 C          60.6035   88.4130    9.4990 C.ar    1  UNL1        0.0406
     18 C          60.5659   87.4484    8.3510 C.ar    1  UNL1        0.0072
     19 C          61.2948   86.1408    8.4459 C.ar    1  UNL1        0.0746
     20 C          62.0613   85.7979    9.6888 C.ar    1  UNL1        0.0441
     21 C          62.0989   86.7626   10.8369 C.ar    1  UNL1        0.1785
     22 C          61.2571   85.1761    7.2978 C.3     1  UNL1        0.4187
     23 F          61.2195   84.2114    6.1498 F       1  UNL1       -0.1659
     24 F          59.7734   85.3661    7.1868 F       1  UNL1       -0.1659
     25 F          62.7409   84.9861    7.4089 F       1  UNL1       -0.1659
     26 O          62.8655   86.4197   12.0798 O.3     1  UNL1       -0.4205
     27 C          63.1419   84.9849   12.4186 C.3     1  UNL1        0.5087
     28 F          64.4090   84.6130   13.1300 F       1  UNL1       -0.1550
     29 F          62.1514   83.9220   12.0459 F       1  UNL1       -0.1550
@<TRIPOS>UNITY_ATOM_ATTR
14 1
charge -1
@<TRIPOS>BOND
     1     9    10    1
     2    10    11    3
     3    11     8    1
     4     8    12    1
     5    12    13    1
     6    13    14   ar
     7    13    15   ar
     8     8     2    1
     9     2     3   ar
    10     3     4   ar
    11     4     5   ar
    12     5     1    1
    13     1    16    1
    14    16    17   ar
    15    17    18   ar
    16    18    19   ar
    17    19    22    1
    18    22    23    1
    19    22    24    1
    20    22    25    1
    21    19    20   ar
    22    20    21   ar
    23    21    26    1
    24    26    27    1
    25    27    28    1
    26    27    29    1
    27     5     6   ar
    28     6     7   ar
    29     7     2   ar
    30    21    16   ar
@<TRIPOS>MOLECULE
*****
 29 30 0 0 0
SMALL
GASTEIGER

@<TRIPOS>ATOM
      1 O          61.9637   88.7858   12.3822 O.3     1  UNL1       -0.4504
      2 C          65.0278   92.0812   12.4237 C.ar    1  UNL1       -0.0099
      3 C          64.7746   91.2768   13.6641 C.ar    1  UNL1       -0.0002
      4 C          63.7533   90.1783   13.6503 C.ar    1  UNL1        0.0372
      5 C          62.9850   89.8843   12.3960 C.ar    1  UNL1        0.1454
      6 C          63.2382   90.6887   11.1555 C.ar    1  UNL1        0.0372
      7 C          64.2595   91.7872   11.1694 C.ar    1  UNL1       -0.0002
      8 C          66.0491   93.1797   12.4375 C.3     1  UNL1        0.0917
      9 C          67.6877   94.7774    8.5629 C.3     1  UNL1        0.0900
     10 C          67.1415   94.2448    9.8544 C.1     1  UNL1       -0.0897
     11 C          66.5953   93.7123   11.1460 C.1     1  UNL1       -0.0872
     12 C          66.5243   93.7456   13.7428 C.3     1  UNL1        0.0591
     13 C          67.6856   93.1172   14.4544 C.2     1  UNL1        0.0517
     14 O          68.5346   92.0999   13.7513 O.co2   1  UNL1       -0.5491
     15 O          67.9979   93.5060   15.8691 O.co2   1  UNL1       -0.5491
     16 C          61.7831   87.9450   11.1532 C.ar    1  UNL1        0.1791
     17 C          62.4975   86.6316   11.0314 C.ar    1  UNL1        0.0406
     18 C          62.3170   85.7908    9.8025 C.ar    1  UNL1        0.0072
     19 C          61.4221   86.2633    8.6952 C.ar    1  UNL1        0.0746
     20 C          60.7077   87.5766    8.8170 C.ar    1  UNL1        0.0441
     21 C          60.8882   88.4175   10.0460 C.ar    1  UNL1        0.1785
     22 C          61.2416   85.4224    7.4662 C.3     1  UNL1        0.4187
     23 F          61.0610   84.5816    6.2373 F       1  UNL1       -0.1659
     24 F          62.7081   85.1076    7.4661 F       1  UNL1       -0.1659
     25 F          59.7750   85.7372    7.4663 F       1  UNL1       -0.1659
     26 O          60.1739   89.7308   10.1678 O.3     1  UNL1       -0.4205
     27 C          59.2885   89.9963   11.3491 C.3     1  UNL1        0.5087
     28 F          58.7884   91.3853   11.6145 F       1  UNL1       -0.1550
     29 F          58.9031   88.8727   12.2650 F       1  UNL1       -0.1550
@<TRIPOS>UNITY_ATOM_ATTR
14 1
charge -1
@<TRIPOS>BOND
     1     9    10    1
     2    10    11    3
     3    11     8    1
     4     8    12    1
     5    12    13    1
     6    13    14   ar
     7    13    15   ar
     8     8     2    1
     9     2     3   ar
    10     3     4   ar
    11     4     5   ar
    12     5     1    1
    13     1    16    1
    14    16    17   ar
    15    17    18   ar
    16    18    19   ar
    17    19    22    1
    18    22    23    1
    19    22    24    1
    20    22    25    1
    21    19    20   ar
    22    20    21   ar
    23    21    26    1
    24    26    27    1
    25    27    28    1
    26    27    29    1
    27     5     6   ar
    28     6     7   ar
    29     7     2   ar
    30    21    16   ar
@<TRIPOS>MOLECULE
*****
 29 30 0 0 0
SMALL
GASTEIGER

@<TRIPOS>ATOM
      1 O          61.8092   88.7925   12.2756 O.3     1  UNL1       -0.4504
      2 C          64.9866   91.9768   12.3954 C.ar    1  UNL1       -0.0099
      3 C          64.2278   91.7219   11.1269 C.ar    1  UNL1       -0.0002
      4 C          63.1686   90.6605   11.0870 C.ar    1  UNL1        0.0372
      5 C          62.8683   89.8540   12.3155 C.ar    1  UNL1        0.1454
      6 C          63.6272   90.1089   13.5840 C.ar    1  UNL1        0.0372
      7 C          64.6864   91.1703   13.6239 C.ar    1  UNL1       -0.0002
      8 C          66.0458   93.0382   12.4354 C.3     1  UNL1        0.0917
      9 C          68.6181   93.5133   16.0969 C.3     1  UNL1        0.0900
     10 C          67.7607   93.3550   14.8764 C.1     1  UNL1       -0.0897
     11 C          66.9032   93.1966   13.6559 C.1     1  UNL1       -0.0872
     12 C          66.2475   93.9413   11.2548 C.3     1  UNL1        0.0591
     13 C          67.2881   93.6104   10.2265 C.2     1  UNL1        0.0517
     14 O          68.0312   94.7116    9.5300 O.co2   1  UNL1       -0.5491
     15 O          67.5857   92.1781    9.8946 O.co2   1  UNL1       -0.5491
     16 C          61.6535   87.9339   11.0555 C.ar    1  UNL1        0.1791
     17 C          62.4156   86.6469   10.9419 C.ar    1  UNL1        0.0406
     18 C          62.2599   85.7883    9.7219 C.ar    1  UNL1        0.0072
     19 C          61.3421   86.2166    8.6154 C.ar    1  UNL1        0.0746
     20 C          60.5800   87.5035    8.7290 C.ar    1  UNL1        0.0441
     21 C          60.7357   88.3622    9.9491 C.ar    1  UNL1        0.1785
     22 C          61.1865   85.3579    7.3954 C.3     1  UNL1        0.4187
     23 F          61.0308   84.4993    6.1754 F       1  UNL1       -0.1659
     24 F          62.6634   85.0960    7.3912 F       1  UNL1       -0.1659
     25 F          59.7096   85.6199    7.3995 F       1  UNL1       -0.1659
     26 O          59.9736   89.6492   10.0627 O.3     1  UNL1       -0.4205
     27 C          59.1930   89.9512   11.3074 C.3     1  UNL1        0.5087
     28 F          58.8181   91.3667   11.6326 F       1  UNL1       -0.1550
     29 F          58.7873   88.8378   12.2270 F       1  UNL1       -0.1550
@<TRIPOS>UNITY_ATOM_ATTR
14 1
charge -1
@<TRIPOS>BOND
     1     9    10    1
     2    10    11    3
     3    11     8    1
     4     8    12    1
     5    12    13    1
     6    13    14   ar
     7    13    15   ar
     8     8     2    1
     9     2     3   ar
    10     3     4   ar
    11     4     5   ar
    12     5     1    1
    13     1    16    1
    14    16    17   ar
    15    17    18   ar
    16    18    19   ar
    17    19    22    1
    18    22    23    1
    19    22    24    1
    20    22    25    1
    21    19    20   ar
    22    20    21   ar
    23    21    26    1
    24    26    27    1
    25    27    28    1
    26    27    29    1
    27     5     6   ar
    28     6     7   ar
    29     7     2   ar
    30    21    16   ar
@<TRIPOS>MOLECULE
*****
 29 30 0 0 0
SMALL
GASTEIGER

@<TRIPOS>ATOM
      1 O          61.6269   88.2929   11.6001 O.3     1  UNL1       -0.4504
      2 C          64.5790   91.6668   11.9903 C.ar    1  UNL1       -0.0099
      3 C          63.8375   91.4642   10.7023 C.ar    1  UNL1       -0.0002
      4 C          62.8534   90.3396   10.5722 C.ar    1  UNL1        0.0372
      5 C          62.6109   89.4175   11.7302 C.ar    1  UNL1        0.1454
      6 C          63.3524   89.6201   13.0182 C.ar    1  UNL1        0.0372
      7 C          64.3364   90.7447   13.1483 C.ar    1  UNL1       -0.0002
      8 C          65.5630   92.7914   12.1204 C.3     1  UNL1        0.0917
      9 C          67.8266   93.3669   15.9668 C.3     1  UNL1        0.0900
     10 C          67.0721   93.1750   14.6847 C.1     1  UNL1       -0.0897
     11 C          66.3175   92.9832   13.4025 C.1     1  UNL1       -0.0872
     12 C          65.7925   93.7242   10.9684 C.3     1  UNL1        0.0591
     13 C          67.0493   93.6183   10.1565 C.2     1  UNL1        0.0517
     14 O          67.5895   92.2697    9.7829 O.co2   1  UNL1       -0.5491
     15 O          67.7659   94.8610    9.7181 O.co2   1  UNL1       -0.5491
     16 C          62.1137   86.8941   11.3630 C.ar    1  UNL1        0.1791
     17 C          62.7482   86.1211   12.4810 C.ar    1  UNL1        0.0406
     18 C          63.2349   84.7223   12.2439 C.ar    1  UNL1        0.0072
     19 C          63.0872   84.0963   10.8888 C.ar    1  UNL1        0.0746
     20 C          62.4528   84.8692    9.7708 C.ar    1  UNL1        0.0441
     21 C          61.9660   86.2681   10.0078 C.ar    1  UNL1        0.1785
     22 C          63.5741   82.6974   10.6517 C.3     1  UNL1        0.4187
     23 F          64.0609   81.2986   10.4146 F       1  UNL1       -0.1659
     24 F          62.4918   82.1692   11.5459 F       1  UNL1       -0.1659
     25 F          64.6563   83.2256    9.7575 F       1  UNL1       -0.1659
     26 O          61.3315   87.0410    8.8898 O.3     1  UNL1       -0.4205
     27 C          60.1444   86.4767    8.1671 C.3     1  UNL1        0.5087
     28 F          58.7679   86.9892    8.4711 F       1  UNL1       -0.1550
     29 F          60.3338   85.3998    7.1403 F       1  UNL1       -0.1550
@<TRIPOS>UNITY_ATOM_ATTR
14 1
charge -1
@<TRIPOS>BOND
     1     9    10    1
     2    10    11    3
     3    11     8    1
     4     8    12    1
     5    12    13    1
     6    13    14   ar
     7    13    15   ar
     8     8     2    1
     9     2     3   ar
    10     3     4   ar
    11     4     5   ar
    12     5     1    1
    13     1    16    1
    14    16    17   ar
    15    17    18   ar
    16    18    19   ar
    17    19    22    1
    18    22    23    1
    19    22    24    1
    20    22    25    1
    21    19    20   ar
    22    20    21   ar
    23    21    26    1
    24    26    27    1
    25    27    28    1
    26    27    29    1
    27     5     6   ar
    28     6     7   ar
    29     7     2   ar
    30    21    16   ar
@<TRIPOS>MOLECULE
*****
 29 30 0 0 0
SMALL
GASTEIGER

@<TRIPOS>ATOM
      1 O          61.7248   88.4552   11.6248 O.3     1  UNL1       -0.4504
      2 C          64.7497   91.7620   12.0307 C.ar    1  UNL1       -0.0099
      3 C          64.0146   91.5726   10.7370 C.ar    1  UNL1       -0.0002
      4 C          63.0063   90.4704   10.6017 C.ar    1  UNL1        0.0372
      5 C          62.7331   89.5575   11.7601 C.ar    1  UNL1        0.1454
      6 C          63.4682   89.7468   13.0538 C.ar    1  UNL1        0.0372
      7 C          64.4765   90.8491   13.1891 C.ar    1  UNL1       -0.0002
      8 C          65.7580   92.8643   12.1660 C.3     1  UNL1        0.0917
      9 C          67.4215   94.8558    8.4895 C.3     1  UNL1        0.0900
     10 C          66.8670   94.1920    9.7150 C.1     1  UNL1       -0.0897
     11 C          66.3125   93.5281   10.9405 C.1     1  UNL1       -0.0872
     12 C          66.2119   93.3027   13.5268 C.3     1  UNL1        0.0591
     13 C          67.4517   92.7123   14.1303 C.2     1  UNL1        0.0517
     14 O          67.7190   92.8684   15.5980 O.co2   1  UNL1       -0.5491
     15 O          68.4242   91.9656   13.2660 O.co2   1  UNL1       -0.5491
     16 C          62.1806   87.0484   11.3739 C.ar    1  UNL1        0.1791
     17 C          62.7732   86.2414   12.4909 C.ar    1  UNL1        0.0406
     18 C          63.2291   84.8346   12.2400 C.ar    1  UNL1        0.0072
     19 C          63.0923   84.2347   10.8720 C.ar    1  UNL1        0.0746
     20 C          62.4997   85.0415    9.7550 C.ar    1  UNL1        0.0441
     21 C          62.0439   86.4484   10.0059 C.ar    1  UNL1        0.1785
     22 C          63.5482   82.8278   10.6211 C.3     1  UNL1        0.4187
     23 F          64.0041   81.4210   10.3702 F       1  UNL1       -0.1659
     24 F          62.4706   82.3163   11.5306 F       1  UNL1       -0.1659
     25 F          64.6258   83.3392    9.7116 F       1  UNL1       -0.1659
     26 O          61.4513   87.2553    8.8889 O.3     1  UNL1       -0.4205
     27 C          60.2199   86.7689    8.1837 C.3     1  UNL1        0.5087
     28 F          60.2707   85.5121    7.3665 F       1  UNL1       -0.1550
     29 F          58.9379   87.5394    8.2957 F       1  UNL1       -0.1550
@<TRIPOS>UNITY_ATOM_ATTR
14 1
charge -1
@<TRIPOS>BOND
     1     9    10    1
     2    10    11    3
     3    11     8    1
     4     8    12    1
     5    12    13    1
     6    13    14   ar
     7    13    15   ar
     8     8     2    1
     9     2     3   ar
    10     3     4   ar
    11     4     5   ar
    12     5     1    1
    13     1    16    1
    14    16    17   ar
    15    17    18   ar
    16    18    19   ar
    17    19    22    1
    18    22    23    1
    19    22    24    1
    20    22    25    1
    21    19    20   ar
    22    20    21   ar
    23    21    26    1
    24    26    27    1
    25    27    28    1
    26    27    29    1
    27     5     6   ar
    28     6     7   ar
    29     7     2   ar
    30    21    16   ar
@<TRIPOS>MOLECULE
*****
 29 30 0 0 0
SMALL
GASTEIGER

@<TRIPOS>ATOM
      1 O          62.7929   90.8283   12.1622 O.3     1  UNL1       -0.4504
      2 C          62.5818   86.6354   10.5420 C.ar    1  UNL1       -0.0099
      3 C          63.0477   86.8736   11.9478 C.ar    1  UNL1       -0.0002
      4 C          63.1180   88.2713   12.4878 C.ar    1  UNL1        0.0372
      5 C          62.7226   89.4306   11.6221 C.ar    1  UNL1        0.1454
      6 C          62.2567   89.1923   10.2164 C.ar    1  UNL1        0.0372
      7 C          62.1863   87.7947    9.6763 C.ar    1  UNL1       -0.0002
      8 C          62.5114   85.2377   10.0020 C.3     1  UNL1        0.0917
      9 C          62.1404   84.5542    5.5697 C.3     1  UNL1        0.0900
     10 C          62.2641   84.7821    7.0471 C.1     1  UNL1       -0.0897
     11 C          62.3877   85.0099    8.5246 C.1     1  UNL1       -0.0872
     12 C          62.5647   84.0679   10.9393 C.3     1  UNL1        0.0591
     13 C          63.8834   83.4398   11.2807 C.2     1  UNL1        0.0517
     14 O          64.6247   82.6437   10.2479 O.co2   1  UNL1       -0.5491
     15 O          64.4609   83.6080   12.6549 O.co2   1  UNL1       -0.5491
     16 C          64.0453   91.3115   12.8314 C.ar    1  UNL1        0.1791
     17 C          65.0999   92.0161   12.0303 C.ar    1  UNL1        0.0406
     18 C          66.3522   92.4994   12.6996 C.ar    1  UNL1        0.0072
     19 C          66.5502   92.2781   14.1699 C.ar    1  UNL1        0.0746
     20 C          65.4958   91.5736   14.9710 C.ar    1  UNL1        0.0441
     21 C          64.2433   91.0903   14.3018 C.ar    1  UNL1        0.1785
     22 C          67.8027   92.7614   14.8391 C.3     1  UNL1        0.4187
     23 F          69.0551   93.2447   15.5084 F       1  UNL1       -0.1659
     24 F          68.6279   92.0589   13.8021 F       1  UNL1       -0.1659
     25 F          66.9774   93.4639   15.8762 F       1  UNL1       -0.1659
     26 O          63.1889   90.3858   15.1028 O.3     1  UNL1       -0.4205
     27 C          63.5559   89.2047   15.9516 C.3     1  UNL1        0.5087
     28 F          64.2709   88.0358   15.3413 F       1  UNL1       -0.1550
     29 F          63.2079   89.1924   17.4106 F       1  UNL1       -0.1550
@<TRIPOS>UNITY_ATOM_ATTR
14 1
charge -1
@<TRIPOS>BOND
     1     9    10    1
     2    10    11    3
     3    11     8    1
     4     8    12    1
     5    12    13    1
     6    13    14   ar
     7    13    15   ar
     8     8     2    1
     9     2     3   ar
    10     3     4   ar
    11     4     5   ar
    12     5     1    1
    13     1    16    1
    14    16    17   ar
    15    17    18   ar
    16    18    19   ar
    17    19    22    1
    18    22    23    1
    19    22    24    1
    20    22    25    1
    21    19    20   ar
    22    20    21   ar
    23    21    26    1
    24    26    27    1
    25    27    28    1
    26    27    29    1
    27     5     6   ar
    28     6     7   ar
    29     7     2   ar
    30    21    16   ar
@<TRIPOS>MOLECULE
*****
 29 30 0 0 0
SMALL
GASTEIGER

@<TRIPOS>ATOM
      1 O          63.5347   91.8503   11.8937 O.3     1  UNL1       -0.4504
      2 C          62.0857   87.8355   10.4684 C.ar    1  UNL1       -0.0099
      3 C          62.7826   87.9550   11.7912 C.ar    1  UNL1       -0.0002
      4 C          63.2656   89.2933   12.2663 C.ar    1  UNL1        0.0372
      5 C          63.0517   90.5121   11.4186 C.ar    1  UNL1        0.1454
      6 C          62.3547   90.3926   10.0958 C.ar    1  UNL1        0.0372
      7 C          61.8717   89.0543    9.6207 C.ar    1  UNL1       -0.0002
      8 C          61.6027   86.4972    9.9933 C.3     1  UNL1        0.0917
      9 C          64.2939   82.9021   10.2804 C.3     1  UNL1        0.0900
     10 C          63.3968   84.1005   10.1847 C.1     1  UNL1       -0.0897
     11 C          62.4997   85.2989   10.0890 C.1     1  UNL1       -0.0872
     12 C          60.2226   86.3573    9.4226 C.3     1  UNL1        0.0591
     13 C          60.0076   86.4744    7.9427 C.2     1  UNL1        0.0517
     14 O          59.4916   87.7561    7.3589 O.co2   1  UNL1       -0.5491
     15 O          60.3087   85.3097    7.0466 O.co2   1  UNL1       -0.5491
     16 C          64.7253   91.9389   12.8017 C.ar    1  UNL1        0.1791
     17 C          64.6346   91.4290   14.2095 C.ar    1  UNL1        0.0406
     18 C          65.8252   91.5176   15.1175 C.ar    1  UNL1        0.0072
     19 C          67.1067   92.1160   14.6177 C.ar    1  UNL1        0.0746
     20 C          67.1975   92.6259   13.2100 C.ar    1  UNL1        0.0441
     21 C          66.0068   92.5373   12.3019 C.ar    1  UNL1        0.1785
     22 C          68.2974   92.2046   15.5258 C.3     1  UNL1        0.4187
     23 F          69.4880   92.2932   16.4338 F       1  UNL1       -0.1659
     24 F          69.2088   92.1556   14.3355 F       1  UNL1       -0.1659
     25 F          67.3859   92.2536   16.7160 F       1  UNL1       -0.1659
     26 O          66.0976   93.0472   10.8942 O.3     1  UNL1       -0.4205
     27 C          67.3790   92.9075   10.1271 C.3     1  UNL1        0.5087
     28 F          67.9540   94.0902    9.4056 F       1  UNL1       -0.1550
     29 F          68.0855   91.5851   10.0814 F       1  UNL1       -0.1550
@<TRIPOS>UNITY_ATOM_ATTR
14 1
charge -1
@<TRIPOS>BOND
     1     9    10    1
     2    10    11    3
     3    11     8    1
     4     8    12    1
     5    12    13    1
     6    13    14   ar
     7    13    15   ar
     8     8     2    1
     9     2     3   ar
    10     3     4   ar
    11     4     5   ar
    12     5     1    1
    13     1    16    1
    14    16    17   ar
    15    17    18   ar
    16    18    19   ar
    17    19    22    1
    18    22    23    1
    19    22    24    1
    20    22    25    1
    21    19    20   ar
    22    20    21   ar
    23    21    26    1
    24    26    27    1
    25    27    28    1
    26    27    29    1
    27     5     6   ar
    28     6     7   ar
    29     7     2   ar
    30    21    16   ar
@<TRIPOS>MOLECULE
*****
 29 30 0 0 0
SMALL
GASTEIGER

@<TRIPOS>ATOM
      1 O          63.4016   91.7758   12.0992 O.3     1  UNL1       -0.4504
      2 C          62.0656   87.7907   10.4916 C.ar    1  UNL1       -0.0099
      3 C          61.7522   89.0477    9.7355 C.ar    1  UNL1       -0.0002
      4 C          62.1976   90.3760   10.2713 C.ar    1  UNL1        0.0372
      5 C          62.9563   90.4474   11.5633 C.ar    1  UNL1        0.1454
      6 C          63.2697   89.1904   12.3194 C.ar    1  UNL1        0.0372
      7 C          62.8243   87.8621   11.7835 C.ar    1  UNL1       -0.0002
      8 C          61.6203   86.4623    9.9557 C.3     1  UNL1        0.0917
      9 C          64.3581   82.9003   10.2124 C.3     1  UNL1        0.0900
     10 C          63.4456   84.0876   10.1268 C.1     1  UNL1       -0.0897
     11 C          62.5329   85.2750   10.0413 C.1     1  UNL1       -0.0872
     12 C          60.2625   86.3213    9.3343 C.3     1  UNL1        0.0591
     13 C          60.1016   86.4426    7.8478 C.2     1  UNL1        0.0517
     14 O          59.4991   87.6829    7.2574 O.co2   1  UNL1       -0.5491
     15 O          60.5433   85.3235    6.9519 O.co2   1  UNL1       -0.5491
     16 C          64.6615   91.8744   12.9071 C.ar    1  UNL1        0.1791
     17 C          65.9254   92.3691   12.2683 C.ar    1  UNL1        0.0406
     18 C          67.1853   92.4677   13.0763 C.ar    1  UNL1        0.0072
     19 C          67.1814   92.0717   14.5230 C.ar    1  UNL1        0.0746
     20 C          65.9176   91.5770   15.1619 C.ar    1  UNL1        0.0441
     21 C          64.6576   91.4784   14.3539 C.ar    1  UNL1        0.1785
     22 C          68.4414   92.1703   15.3310 C.3     1  UNL1        0.4187
     23 F          69.7014   92.2689   16.1389 F       1  UNL1       -0.1659
     24 F          67.6297   92.2135   16.5916 F       1  UNL1       -0.1659
     25 F          69.2531   92.1271   14.0704 F       1  UNL1       -0.1659
     26 O          63.3938   90.9838   14.9927 O.3     1  UNL1       -0.4205
     27 C          63.3722   89.6497   15.6781 C.3     1  UNL1        0.5087
     28 F          64.3469   88.5833   15.2746 F       1  UNL1       -0.1550
     29 F          62.3759   89.3819   16.7670 F       1  UNL1       -0.1550
@<TRIPOS>UNITY_ATOM_ATTR
14 1
charge -1
@<TRIPOS>BOND
     1     9    10    1
     2    10    11    3
     3    11     8    1
     4     8    12    1
     5    12    13    1
     6    13    14   ar
     7    13    15   ar
     8     8     2    1
     9     2     3   ar
    10     3     4   ar
    11     4     5   ar
    12     5     1    1
    13     1    16    1
    14    16    17   ar
    15    17    18   ar
    16    18    19   ar
    17    19    22    1
    18    22    23    1
    19    22    24    1
    20    22    25    1
    21    19    20   ar
    22    20    21   ar
    23    21    26    1
    24    26    27    1
    25    27    28    1
    26    27    29    1
    27     5     6   ar
    28     6     7   ar
    29     7     2   ar
    30    21    16   ar
