@<TRIPOS>MOLECULE
*****
 33 37 0 0 0
SMALL
GASTEIGER

@<TRIPOS>ATOM
      1 C          63.1271   90.2920   12.6800 C.2     1  UNL1        0.2542
      2 O          62.3133   90.2807   11.4200 O.2     1  UNL1       -0.2724
      3 N          63.5933   89.0002   13.2834 N.am    1  UNL1       -0.2569
      4 C          64.4098   88.8549   14.5333 C.3     1  UNL1        0.1030
      5 C          64.6460   87.3919   14.7652 C.3     1  UNL1        0.0518
      6 C          63.9754   86.6330   13.6586 C.ar    1  UNL1        0.0207
      7 C          63.3248   87.6270   12.7428 C.ar    1  UNL1        0.0521
      8 C          62.5720   87.1534   11.5350 C.ar    1  UNL1        0.0147
      9 C          62.4698   85.6856   11.2429 C.ar    1  UNL1        0.0035
     10 C          63.1203   84.6916   12.1587 C.ar    1  UNL1        0.0289
     11 C          63.8732   85.1653   13.3666 C.ar    1  UNL1        0.1374
     12 F          64.5238   84.1713   14.2824 F       1  UNL1       -0.2045
     13 C          63.0181   83.2238   11.8667 C.ar    1  UNL1        0.0250
     14 C          63.4168   82.5495   10.5875 C.ar    1  UNL1        0.0772
     15 N          63.1443   81.0816   10.7328 N.ar    1  UNL1       -0.3094
     16 C          63.3949   80.0311    9.6918 C.3     1  UNL1        0.1319
     17 C          62.5773   80.8488   12.1018 C.ar    1  UNL1        0.1483
     18 N          62.1218   79.6023   12.8009 N.ar    1  UNL1       -0.2065
     19 C          61.5884   79.6795   14.2007 C.ar    1  UNL1        0.2014
     20 N          61.5104   81.0035   14.9015 N.ar    1  UNL1       -0.2094
     21 C          61.9658   82.2501   14.2024 C.ar    1  UNL1        0.1300
     22 N          61.8878   83.5741   14.9032 N.pl3   1  UNL1       -0.3425
     23 C          62.4993   82.1727   12.8026 C.ar    1  UNL1        0.0669
     24 H          61.5377   83.6249   15.8219 H       1  UNL1        0.1437
     25 H          62.1868   84.3923   14.4444 H       1  UNL1        0.1437
     26 C          63.4747   91.5951   13.3366 C.3     1  UNL1        0.2119
     27 C          68.2539   92.9578   15.1210 C.3     1  UNL1        0.0540
     28 C          67.0989   92.6797   14.2052 C.ar    1  UNL1        0.0801
     29 C          67.0987   92.8375   12.7135 C.ar    1  UNL1        0.0308
     30 C          65.7411   92.4504   12.2066 C.ar    1  UNL1        0.0577
     31 C          65.2998   92.4588   10.7730 C.3     1  UNL1        0.0518
     32 N          64.9022   92.0534   13.3850 N.ar    1  UNL1       -0.2458
     33 N          65.7414   92.1951   14.6202 N.ar    1  UNL1       -0.1735
@<TRIPOS>BOND
     1    27    28    1
     2    28    29   ar
     3    29    30   ar
     4    30    31    1
     5    30    32   ar
     6    32    26    1
     7    26     1    1
     8     1     2    2
     9     1     3   am
    10     3     4    1
    11     4     5    1
    12     5     6    1
    13     6     7   ar
    14     7     8   ar
    15     8     9   ar
    16     9    10   ar
    17    10    13    1
    18    13    14   ar
    19    14    15   ar
    20    15    16    1
    21    15    17   ar
    22    17    18   ar
    23    18    19   ar
    24    19    20   ar
    25    20    21   ar
    26    21    22    1
    27    21    23   ar
    28    10    11   ar
    29    11    12    1
    30    32    33   ar
    31    33    28   ar
    32     7     3    1
    33    23    13   ar
    34    11     6   ar
    35    23    17   ar
    36    22    24    1
    37    22    25    1
@<TRIPOS>MOLECULE
*****
 33 37 0 0 0
SMALL
GASTEIGER

@<TRIPOS>ATOM
      1 C          64.0780   89.9951   13.8094 C.2     1  UNL1        0.2542
      2 O          64.8658   89.3764   14.9259 O.2     1  UNL1       -0.2724
      3 N          63.4131   89.1217   12.7870 N.am    1  UNL1       -0.2569
      4 C          62.5969   89.5942   11.6206 C.3     1  UNL1        0.1030
      5 C          62.1271   88.3870   10.8643 C.3     1  UNL1        0.0518
      6 C          62.6529   87.1684   11.5633 C.ar    1  UNL1        0.0207
      7 C          63.4478   87.6225   12.7516 C.ar    1  UNL1        0.0521
      8 C          64.1003   86.6122   13.6479 C.ar    1  UNL1        0.0147
      9 C          63.9581   85.1477   13.3559 C.ar    1  UNL1        0.0035
     10 C          63.1633   84.6937   12.1676 C.ar    1  UNL1        0.0289
     11 C          62.5107   85.7041   11.2713 C.ar    1  UNL1        0.1374
     12 F          61.7159   85.2500   10.0830 F       1  UNL1       -0.2045
     13 C          63.0211   83.2293   11.8756 C.ar    1  UNL1        0.0250
     14 C          63.3367   82.5552   10.5732 C.ar    1  UNL1        0.0772
     15 N          63.0489   81.0912   10.7273 N.ar    1  UNL1       -0.3094
     16 C          63.2239   80.0421    9.6696 C.3     1  UNL1        0.1319
     17 C          62.5555   80.8604   12.1250 C.ar    1  UNL1        0.1483
     18 N          62.1197   79.6178   12.8432 N.ar    1  UNL1       -0.2065
     19 C          61.6666   79.6964   14.2709 C.ar    1  UNL1        0.2014
     20 N          61.6494   81.0179   14.9806 N.ar    1  UNL1       -0.2094
     21 C          62.0853   82.2606   14.2624 C.ar    1  UNL1        0.1300
     22 N          62.0681   83.5820   14.9720 N.pl3   1  UNL1       -0.3425
     23 C          62.5383   82.1819   12.8346 C.ar    1  UNL1        0.0669
     24 H          61.7708   83.6337   15.9091 H       1  UNL1        0.1437
     25 H          62.3542   84.3977   14.5006 H       1  UNL1        0.1437
     26 C          63.9550   91.4870   13.7152 C.3     1  UNL1        0.2119
     27 C          66.6129   93.7449    9.7505 C.3     1  UNL1        0.0540
     28 C          66.1953   93.3145   11.1254 C.ar    1  UNL1        0.0801
     29 C          66.8869   93.6691   12.4083 C.ar    1  UNL1        0.0308
     30 C          66.1318   93.0277   13.5346 C.ar    1  UNL1        0.0577
     31 C          66.4748   93.1210   14.9919 C.3     1  UNL1        0.0518
     32 N          64.9736   92.2767   12.9478 N.ar    1  UNL1       -0.2458
     33 N          65.0128   92.4539   11.4588 N.ar    1  UNL1       -0.1735
@<TRIPOS>BOND
     1    27    28    1
     2    28    29   ar
     3    29    30   ar
     4    30    31    1
     5    30    32   ar
     6    32    26    1
     7    26     1    1
     8     1     2    2
     9     1     3   am
    10     3     4    1
    11     4     5    1
    12     5     6    1
    13     6     7   ar
    14     7     8   ar
    15     8     9   ar
    16     9    10   ar
    17    10    13    1
    18    13    14   ar
    19    14    15   ar
    20    15    16    1
    21    15    17   ar
    22    17    18   ar
    23    18    19   ar
    24    19    20   ar
    25    20    21   ar
    26    21    22    1
    27    21    23   ar
    28    10    11   ar
    29    11    12    1
    30    32    33   ar
    31    33    28   ar
    32     7     3    1
    33    23    13   ar
    34    11     6   ar
    35    23    17   ar
    36    22    24    1
    37    22    25    1
@<TRIPOS>MOLECULE
*****
 33 37 0 0 0
SMALL
GASTEIGER

@<TRIPOS>ATOM
      1 C          63.4432   90.2013   12.1966 C.2     1  UNL1        0.2542
      2 O          62.6427   90.0079   10.9429 O.2     1  UNL1       -0.2724
      3 N          63.7495   89.0279   13.0793 N.am    1  UNL1       -0.2569
      4 C          64.5343   89.0669   14.3570 C.3     1  UNL1        0.1030
      5 C          64.5946   87.6726   14.9067 C.3     1  UNL1        0.0518
      6 C          63.8471   86.7718   13.9687 C.ar    1  UNL1        0.0207
      7 C          63.3248   87.6094   12.8393 C.ar    1  UNL1        0.0521
      8 C          62.5299   86.9724   11.7383 C.ar    1  UNL1        0.0147
      9 C          62.2573   85.4976   11.7667 C.ar    1  UNL1        0.0035
     10 C          62.7796   84.6599   12.8961 C.ar    1  UNL1        0.0289
     11 C          63.5745   85.2971   13.9971 C.ar    1  UNL1        0.1374
     12 F          64.0969   84.4594   15.1265 F       1  UNL1       -0.2045
     13 C          62.5071   83.1852   12.9245 C.ar    1  UNL1        0.0250
     14 C          61.8209   82.4365   14.0283 C.ar    1  UNL1        0.0772
     15 N          61.7625   80.9888   13.6401 N.ar    1  UNL1       -0.3094
     16 C          61.1599   79.8815   14.4529 C.3     1  UNL1        0.1319
     17 C          62.4128   80.8428   12.2962 C.ar    1  UNL1        0.1483
     18 N          62.6453   79.6491   11.4181 N.ar    1  UNL1       -0.2065
     19 C          63.3379   79.8128   10.0977 C.ar    1  UNL1        0.2014
     20 N          63.7981   81.1703    9.6554 N.ar    1  UNL1       -0.2094
     21 C          63.5655   82.3641   10.5336 C.ar    1  UNL1        0.1300
     22 N          64.0257   83.7215   10.0913 N.pl3   1  UNL1       -0.3425
     23 C          62.8729   82.2002   11.8539 C.ar    1  UNL1        0.0669
     24 H          64.4803   83.8290    9.2247 H       1  UNL1        0.1437
     25 H          63.8730   84.5049   10.6677 H       1  UNL1        0.1437
     26 C          63.9374   91.5681   12.5675 C.3     1  UNL1        0.2119
     27 C          67.5477   93.5227    9.2468 C.3     1  UNL1        0.0540
     28 C          66.8917   92.9740   10.4791 C.ar    1  UNL1        0.0801
     29 C          67.5580   92.7390   11.8023 C.ar    1  UNL1        0.0308
     30 C          66.5324   92.1838   12.7457 C.ar    1  UNL1        0.0577
     31 C          66.7660   91.8035   14.1778 C.3     1  UNL1        0.0518
     32 N          65.2323   92.0756   12.0055 N.ar    1  UNL1       -0.2458
     33 N          65.4543   92.5640   10.6047 N.ar    1  UNL1       -0.1735
@<TRIPOS>BOND
     1    27    28    1
     2    28    29   ar
     3    29    30   ar
     4    30    31    1
     5    30    32   ar
     6    32    26    1
     7    26     1    1
     8     1     2    2
     9     1     3   am
    10     3     4    1
    11     4     5    1
    12     5     6    1
    13     6     7   ar
    14     7     8   ar
    15     8     9   ar
    16     9    10   ar
    17    10    13    1
    18    13    14   ar
    19    14    15   ar
    20    15    16    1
    21    15    17   ar
    22    17    18   ar
    23    18    19   ar
    24    19    20   ar
    25    20    21   ar
    26    21    22    1
    27    21    23   ar
    28    10    11   ar
    29    11    12    1
    30    32    33   ar
    31    33    28   ar
    32     7     3    1
    33    23    13   ar
    34    11     6   ar
    35    23    17   ar
    36    22    24    1
    37    22    25    1
@<TRIPOS>MOLECULE
*****
 33 37 0 0 0
SMALL
GASTEIGER

@<TRIPOS>ATOM
      1 C          62.8926   93.2116    0.0750 C.2     1  UNL1        0.2542
      2 O          61.8021   92.7432    0.9923 O.2     1  UNL1       -0.2724
      3 N          62.5810   93.5370   -1.3557 N.am    1  UNL1       -0.2569
      4 C          63.5621   94.0139   -2.3853 C.3     1  UNL1        0.1030
      5 C          62.8210   94.2143   -3.6739 C.3     1  UNL1        0.0518
      6 C          61.3819   93.8613   -3.4408 C.ar    1  UNL1        0.0207
      7 C          61.2336   93.4427   -2.0081 C.ar    1  UNL1        0.0521
      8 C          59.8907   93.0298   -1.4825 C.ar    1  UNL1        0.0147
      9 C          58.6961   93.0354   -2.3898 C.ar    1  UNL1        0.0035
     10 C          58.8445   93.4540   -3.8225 C.ar    1  UNL1        0.0289
     11 C          60.1874   93.8669   -4.3480 C.ar    1  UNL1        0.1374
     12 F          60.3357   94.2855   -5.7808 F       1  UNL1       -0.2045
     13 C          57.6500   93.4596   -4.7297 C.ar    1  UNL1        0.0250
     14 C          57.2732   92.3779   -5.6982 C.ar    1  UNL1        0.0772
     15 N          56.0129   92.7977   -6.3948 N.ar    1  UNL1       -0.3094
     16 C          55.2829   92.0139   -7.4450 C.3     1  UNL1        0.1319
     17 C          55.6107   94.1389   -5.8568 C.ar    1  UNL1        0.1483
     18 N          54.4538   95.0406   -6.1710 N.ar    1  UNL1       -0.2065
     19 C          54.3087   96.3512   -5.4563 C.ar    1  UNL1        0.2014
     20 N          55.3205   96.7604   -4.4272 N.ar    1  UNL1       -0.2094
     21 C          56.4774   95.8587   -4.1129 C.ar    1  UNL1        0.1300
     22 N          57.4891   96.2677   -3.0838 N.pl3   1  UNL1       -0.3425
     23 C          56.6224   94.5480   -4.8278 C.ar    1  UNL1        0.0669
     24 H          57.3939   97.1280   -2.6147 H       1  UNL1        0.1437
     25 H          58.2484   95.6760   -2.8776 H       1  UNL1        0.1437
     26 C          64.2947   93.3546    0.5885 C.3     1  UNL1        0.2119
     27 C          65.2984   96.8559    4.4114 C.3     1  UNL1        0.0540
     28 C          65.1689   96.2162    3.0608 C.ar    1  UNL1        0.0801
     29 C          65.5168   96.8515    1.7473 C.ar    1  UNL1        0.0308
     30 C          65.2317   95.8569    0.6613 C.ar    1  UNL1        0.0577
     31 C          65.4351   96.0742   -0.8089 C.3     1  UNL1        0.0518
     32 N          64.7076   94.6069    1.3036 N.ar    1  UNL1       -0.2458
     33 N          64.6687   94.8289    2.7866 N.ar    1  UNL1       -0.1735
@<TRIPOS>BOND
     1    27    28    1
     2    28    29   ar
     3    29    30   ar
     4    30    31    1
     5    30    32   ar
     6    32    26    1
     7    26     1    1
     8     1     2    2
     9     1     3   am
    10     3     4    1
    11     4     5    1
    12     5     6    1
    13     6     7   ar
    14     7     8   ar
    15     8     9   ar
    16     9    10   ar
    17    10    13    1
    18    13    14   ar
    19    14    15   ar
    20    15    16    1
    21    15    17   ar
    22    17    18   ar
    23    18    19   ar
    24    19    20   ar
    25    20    21   ar
    26    21    22    1
    27    21    23   ar
    28    10    11   ar
    29    11    12    1
    30    32    33   ar
    31    33    28   ar
    32     7     3    1
    33    23    13   ar
    34    11     6   ar
    35    23    17   ar
    36    22    24    1
    37    22    25    1
@<TRIPOS>MOLECULE
*****
 33 37 0 0 0
SMALL
GASTEIGER

@<TRIPOS>ATOM
      1 C          63.2825   90.1762   11.7297 C.2     1  UNL1        0.2542
      2 O          62.4752   89.9001   10.4960 O.2     1  UNL1       -0.2724
      3 N          63.6180   89.0586   12.6722 N.am    1  UNL1       -0.2569
      4 C          64.4126   89.1816   13.9384 C.3     1  UNL1        0.1030
      5 C          64.5034   87.8208   14.5627 C.3     1  UNL1        0.0518
      6 C          63.7649   86.8566   13.6823 C.ar    1  UNL1        0.0207
      7 C          63.2176   87.6217   12.5139 C.ar    1  UNL1        0.0521
      8 C          62.4255   86.9111   11.4568 C.ar    1  UNL1        0.0147
      9 C          62.1806   85.4353   11.5681 C.ar    1  UNL1        0.0035
     10 C          62.7278   84.6703   12.7365 C.ar    1  UNL1        0.0289
     11 C          63.5200   85.3810   13.7937 C.ar    1  UNL1        0.1374
     12 F          64.0672   84.6160   14.9621 F       1  UNL1       -0.2045
     13 C          62.4829   83.1947   12.8479 C.ar    1  UNL1        0.0250
     14 C          61.8416   82.4924   14.0079 C.ar    1  UNL1        0.0772
     15 N          61.7987   81.0258   13.6957 N.ar    1  UNL1       -0.3094
     16 C          61.2392   79.9520   14.5810 C.3     1  UNL1        0.1319
     17 C          62.4135   80.8218   12.3427 C.ar    1  UNL1        0.1483
     18 N          62.6429   79.5886   11.5202 N.ar    1  UNL1       -0.2065
     19 C          63.2951   79.6957   10.1737 C.ar    1  UNL1        0.2014
     20 N          63.7180   81.0361    9.6497 N.ar    1  UNL1       -0.2094
     21 C          63.4886   82.2694   10.4723 C.ar    1  UNL1        0.1300
     22 N          63.9115   83.6098    9.9484 N.pl3   1  UNL1       -0.3425
     23 C          62.8364   82.1622   11.8188 C.ar    1  UNL1        0.0669
     24 H          64.3396   83.6801    9.0646 H       1  UNL1        0.1437
     25 H          63.7609   84.4192   10.4882 H       1  UNL1        0.1437
     26 C          63.7544   91.5700   12.0208 C.3     1  UNL1        0.2119
     27 C          65.2184   92.2364   17.0501 C.3     1  UNL1        0.0540
     28 C          65.2557   92.1481   15.5532 C.ar    1  UNL1        0.0801
     29 C          66.4592   92.3721   14.6864 C.ar    1  UNL1        0.0308
     30 C          66.0434   92.1828   13.2577 C.ar    1  UNL1        0.0577
     31 C          66.9321   92.3118   12.0562 C.3     1  UNL1        0.0518
     32 N          64.5827   91.8418   13.2415 N.ar    1  UNL1       -0.2458
     33 N          64.0959   91.8204   14.6601 N.ar    1  UNL1       -0.1735
@<TRIPOS>BOND
     1    27    28    1
     2    28    29   ar
     3    29    30   ar
     4    30    31    1
     5    30    32   ar
     6    32    26    1
     7    26     1    1
     8     1     2    2
     9     1     3   am
    10     3     4    1
    11     4     5    1
    12     5     6    1
    13     6     7   ar
    14     7     8   ar
    15     8     9   ar
    16     9    10   ar
    17    10    13    1
    18    13    14   ar
    19    14    15   ar
    20    15    16    1
    21    15    17   ar
    22    17    18   ar
    23    18    19   ar
    24    19    20   ar
    25    20    21   ar
    26    21    22    1
    27    21    23   ar
    28    10    11   ar
    29    11    12    1
    30    32    33   ar
    31    33    28   ar
    32     7     3    1
    33    23    13   ar
    34    11     6   ar
    35    23    17   ar
    36    22    24    1
    37    22    25    1
@<TRIPOS>MOLECULE
*****
 33 37 0 0 0
SMALL
GASTEIGER

@<TRIPOS>ATOM
      1 C          60.6303   87.1335    8.8536 C.2     1  UNL1        0.2542
      2 O          60.2765   88.4815    8.2991 O.2     1  UNL1       -0.2724
      3 N          61.4894   87.0285   10.0788 N.am    1  UNL1       -0.2569
      4 C          61.9236   85.7565   10.7448 C.3     1  UNL1        0.1030
      5 C          62.7676   86.1189   11.9307 C.3     1  UNL1        0.0518
      6 C          62.8549   87.6149   11.9976 C.ar    1  UNL1        0.0207
      7 C          62.0649   88.1770   10.8531 C.ar    1  UNL1        0.0521
      8 C          61.9718   89.6621   10.6639 C.ar    1  UNL1        0.0147
      9 C          62.6686   90.5851   11.6192 C.ar    1  UNL1        0.0035
     10 C          63.4586   90.0230   12.7637 C.ar    1  UNL1        0.0289
     11 C          63.5518   88.5378   12.9529 C.ar    1  UNL1        0.1374
     12 F          64.3417   87.9757   14.0974 F       1  UNL1       -0.2045
     13 C          64.1554   90.9459   13.7190 C.ar    1  UNL1        0.0250
     14 C          64.0930   90.8765   15.2161 C.ar    1  UNL1        0.0772
     15 N          64.9360   91.9880   15.7673 N.ar    1  UNL1       -0.3094
     16 C          65.1568   92.2901   17.2198 C.3     1  UNL1        0.1319
     17 C          65.5195   92.7444   14.6108 C.ar    1  UNL1        0.1483
     18 N          66.4278   93.9364   14.5468 N.ar    1  UNL1       -0.2065
     19 C          66.8537   94.4844   13.2171 C.ar    1  UNL1        0.2014
     20 N          66.3712   93.8404   11.9512 N.ar    1  UNL1       -0.2094
     21 C          65.4629   92.6483   12.0151 C.ar    1  UNL1        0.1300
     22 N          64.9805   92.0043   10.7492 N.pl3   1  UNL1       -0.3425
     23 C          65.0371   92.1004   13.3449 C.ar    1  UNL1        0.0669
     24 H          65.2600   92.3639    9.8764 H       1  UNL1        0.1437
     25 H          64.3843   91.2219   10.7912 H       1  UNL1        0.1437
     26 C          60.1252   85.8905    8.1831 C.3     1  UNL1        0.2119
     27 C          61.4974   83.7137    3.5722 C.3     1  UNL1        0.0540
     28 C          61.5599   84.2464    4.9730 C.ar    1  UNL1        0.0801
     29 C          62.7729   84.2671    5.8551 C.ar    1  UNL1        0.0308
     30 C          62.3831   84.8855    7.1650 C.ar    1  UNL1        0.0577
     31 C          63.2883   85.1040    8.3409 C.3     1  UNL1        0.0518
     32 N          60.9292   85.2470    7.0924 N.ar    1  UNL1       -0.2458
     33 N          60.4204   84.8521    5.7377 N.ar    1  UNL1       -0.1735
@<TRIPOS>BOND
     1    27    28    1
     2    28    29   ar
     3    29    30   ar
     4    30    31    1
     5    30    32   ar
     6    32    26    1
     7    26     1    1
     8     1     2    2
     9     1     3   am
    10     3     4    1
    11     4     5    1
    12     5     6    1
    13     6     7   ar
    14     7     8   ar
    15     8     9   ar
    16     9    10   ar
    17    10    13    1
    18    13    14   ar
    19    14    15   ar
    20    15    16    1
    21    15    17   ar
    22    17    18   ar
    23    18    19   ar
    24    19    20   ar
    25    20    21   ar
    26    21    22    1
    27    21    23   ar
    28    10    11   ar
    29    11    12    1
    30    32    33   ar
    31    33    28   ar
    32     7     3    1
    33    23    13   ar
    34    11     6   ar
    35    23    17   ar
    36    22    24    1
    37    22    25    1
@<TRIPOS>MOLECULE
*****
 33 37 0 0 0
SMALL
GASTEIGER

@<TRIPOS>ATOM
      1 C          62.3492   93.4609    0.2682 C.2     1  UNL1        0.2542
      2 O          63.3079   93.4338   -0.8851 O.2     1  UNL1       -0.2724
      3 N          60.8799   93.6300    0.0182 N.am    1  UNL1       -0.2569
      4 C          59.8069   93.6757    1.0654 C.3     1  UNL1        0.1030
      5 C          58.4895   93.8570    0.3716 C.3     1  UNL1        0.0518
      6 C          58.7482   93.9234   -1.1045 C.ar    1  UNL1        0.0207
      7 C          60.2256   93.7831   -1.3228 C.ar    1  UNL1        0.0521
      8 C          60.7842   93.8129   -2.7146 C.ar    1  UNL1        0.0147
      9 C          59.8654   93.9830   -3.8881 C.ar    1  UNL1        0.0035
     10 C          58.3880   94.1233   -3.6697 C.ar    1  UNL1        0.0289
     11 C          57.8294   94.0935   -2.2779 C.ar    1  UNL1        0.1374
     12 F          56.3521   94.2338   -2.0595 F       1  UNL1       -0.2045
     13 C          57.4693   94.2934   -4.8431 C.ar    1  UNL1        0.0250
     14 C          57.1157   95.5921   -5.5051 C.ar    1  UNL1        0.0772
     15 N          56.1706   95.2960   -6.6317 N.ar    1  UNL1       -0.3094
     16 C          55.5628   96.3046   -7.5608 C.3     1  UNL1        0.1319
     17 C          55.9402   93.8142   -6.6659 C.ar    1  UNL1        0.1483
     18 N          55.1031   92.9490   -7.5608 N.ar    1  UNL1       -0.2065
     19 C          55.0687   91.4643   -7.3505 C.ar    1  UNL1        0.2014
     20 N          55.8713   90.8446   -6.2451 N.ar    1  UNL1       -0.2094
     21 C          56.7083   91.7098   -5.3501 C.ar    1  UNL1        0.1300
     22 N          57.5109   91.0902   -4.2447 N.pl3   1  UNL1       -0.3425
     23 C          56.7428   93.1945   -5.5605 C.ar    1  UNL1        0.0669
     24 H          57.4883   90.1157   -4.1066 H       1  UNL1        0.1437
     25 H          58.0603   91.6580   -3.6573 H       1  UNL1        0.1437
     26 C          62.8598   93.3189    1.6714 C.3     1  UNL1        0.2119
     27 C          58.9078   91.9804    4.9073 C.3     1  UNL1        0.0540
     28 C          60.2229   91.9811    4.1860 C.ar    1  UNL1        0.0801
     29 C          61.3314   90.9879    4.3725 C.ar    1  UNL1        0.0308
     30 C          62.4541   91.3682    3.4533 C.ar    1  UNL1        0.0577
     31 C          63.7618   90.6468    3.3133 C.3     1  UNL1        0.0518
     32 N          62.0395   92.5964    2.6986 N.ar    1  UNL1       -0.2458
     33 N          60.6605   92.9752    3.1514 N.ar    1  UNL1       -0.1735
@<TRIPOS>BOND
     1    27    28    1
     2    28    29   ar
     3    29    30   ar
     4    30    31    1
     5    30    32   ar
     6    32    26    1
     7    26     1    1
     8     1     2    2
     9     1     3   am
    10     3     4    1
    11     4     5    1
    12     5     6    1
    13     6     7   ar
    14     7     8   ar
    15     8     9   ar
    16     9    10   ar
    17    10    13    1
    18    13    14   ar
    19    14    15   ar
    20    15    16    1
    21    15    17   ar
    22    17    18   ar
    23    18    19   ar
    24    19    20   ar
    25    20    21   ar
    26    21    22    1
    27    21    23   ar
    28    10    11   ar
    29    11    12    1
    30    32    33   ar
    31    33    28   ar
    32     7     3    1
    33    23    13   ar
    34    11     6   ar
    35    23    17   ar
    36    22    24    1
    37    22    25    1
@<TRIPOS>MOLECULE
*****
 33 37 0 0 0
SMALL
GASTEIGER

@<TRIPOS>ATOM
      1 C          61.6491   95.7795   -0.0210 C.2     1  UNL1        0.2542
      2 O          62.2292   96.6804   -1.0707 O.2     1  UNL1       -0.2724
      3 N          60.3685   95.0452   -0.2871 N.am    1  UNL1       -0.2569
      4 C          59.6721   94.1149    0.6613 C.3     1  UNL1        0.1030
      5 C          58.4326   93.6071   -0.0139 C.3     1  UNL1        0.0518
      6 C          58.3630   94.2235   -1.3796 C.ar    1  UNL1        0.0207
      7 C          59.5595   95.1123   -1.5485 C.ar    1  UNL1        0.0521
      8 C          59.7577   95.8679   -2.8290 C.ar    1  UNL1        0.0147
      9 C          58.7594   95.7347   -3.9407 C.ar    1  UNL1        0.0035
     10 C          57.5630   94.8459   -3.7718 C.ar    1  UNL1        0.0289
     11 C          57.3648   94.0903   -2.4912 C.ar    1  UNL1        0.1374
     12 F          56.1684   93.2015   -2.3223 F       1  UNL1       -0.2045
     13 C          56.5648   94.7127   -4.8834 C.ar    1  UNL1        0.0250
     14 C          55.7136   95.8148   -5.4409 C.ar    1  UNL1        0.0772
     15 N          54.8652   95.2373   -6.5348 N.ar    1  UNL1       -0.3094
     16 C          53.8654   95.9871   -7.3644 C.3     1  UNL1        0.1319
     17 C          55.1921   93.7781   -6.6534 C.ar    1  UNL1        0.1483
     18 N          54.6690   92.7027   -7.5589 N.ar    1  UNL1       -0.2065
     19 C          55.1962   91.3032   -7.4439 C.ar    1  UNL1        0.2014
     20 N          56.2466   90.9789   -6.4233 N.ar    1  UNL1       -0.2094
     21 C          56.7698   92.0544   -5.5177 C.ar    1  UNL1        0.1300
     22 N          57.8201   91.7302   -4.4972 N.pl3   1  UNL1       -0.3425
     23 C          56.2425   93.4539   -5.6328 C.ar    1  UNL1        0.0669
     24 H          58.1662   90.8116   -4.4216 H       1  UNL1        0.1437
     25 H          58.1635   92.4360   -3.9029 H       1  UNL1        0.1437
     26 C          62.3497   95.6128    1.2948 C.3     1  UNL1        0.2119
     27 C          63.3537   90.8171    3.2633 C.3     1  UNL1        0.0540
     28 C          63.4976   92.1151    2.5254 C.ar    1  UNL1        0.0801
     29 C          64.6873   92.5433    1.7184 C.ar    1  UNL1        0.0308
     30 C          64.4021   93.9057    1.1591 C.ar    1  UNL1        0.0577
     31 C          65.3214   94.7125    0.2909 C.3     1  UNL1        0.0518
     32 N          63.0361   94.3194    1.6206 N.ar    1  UNL1       -0.2458
     33 N          62.4771   93.2128    2.4650 N.ar    1  UNL1       -0.1735
@<TRIPOS>BOND
     1    27    28    1
     2    28    29   ar
     3    29    30   ar
     4    30    31    1
     5    30    32   ar
     6    32    26    1
     7    26     1    1
     8     1     2    2
     9     1     3   am
    10     3     4    1
    11     4     5    1
    12     5     6    1
    13     6     7   ar
    14     7     8   ar
    15     8     9   ar
    16     9    10   ar
    17    10    13    1
    18    13    14   ar
    19    14    15   ar
    20    15    16    1
    21    15    17   ar
    22    17    18   ar
    23    18    19   ar
    24    19    20   ar
    25    20    21   ar
    26    21    22    1
    27    21    23   ar
    28    10    11   ar
    29    11    12    1
    30    32    33   ar
    31    33    28   ar
    32     7     3    1
    33    23    13   ar
    34    11     6   ar
    35    23    17   ar
    36    22    24    1
    37    22    25    1
@<TRIPOS>MOLECULE
*****
 33 37 0 0 0
SMALL
GASTEIGER

@<TRIPOS>ATOM
      1 C          60.5841   92.8297   -1.0581 C.2     1  UNL1        0.2542
      2 O          59.5613   91.9395   -0.4168 O.2     1  UNL1       -0.2724
      3 N          60.1615   93.8417   -2.0816 N.am    1  UNL1       -0.2569
      4 C          61.0660   94.7955   -2.8041 C.3     1  UNL1        0.1030
      5 C          60.2238   95.6207   -3.7313 C.3     1  UNL1        0.0518
      6 C          58.7987   95.1769   -3.5817 C.ar    1  UNL1        0.0207
      7 C          58.7603   94.0774   -2.5621 C.ar    1  UNL1        0.0521
      8 C          57.4543   93.4329   -2.2030 C.ar    1  UNL1        0.0147
      9 C          56.1867   93.8879   -2.8635 C.ar    1  UNL1        0.0035
     10 C          56.2251   94.9874   -3.8831 C.ar    1  UNL1        0.0289
     11 C          57.5312   95.6319   -4.2422 C.ar    1  UNL1        0.1374
     12 F          57.5697   96.7314   -5.2618 F       1  UNL1       -0.2045
     13 C          54.9576   95.4424   -4.5436 C.ar    1  UNL1        0.0250
     14 C          54.7169   95.5334   -6.0214 C.ar    1  UNL1        0.0772
     15 N          53.3188   96.0336   -6.2335 N.ar    1  UNL1       -0.3094
     16 C          52.6598   96.2735   -7.5594 C.3     1  UNL1        0.1319
     17 C          52.6953   96.2517   -4.8866 C.ar    1  UNL1        0.1483
     18 N          51.3362   96.7359   -4.4763 N.ar    1  UNL1       -0.2065
     19 C          50.9899   96.8547   -3.0218 C.ar    1  UNL1        0.2014
     20 N          52.0027   96.4893   -1.9773 N.ar    1  UNL1       -0.2094
     21 C          53.3619   96.0052   -2.3877 C.ar    1  UNL1        0.1300
     22 N          54.3748   95.6398   -1.3434 N.pl3   1  UNL1       -0.3425
     23 C          53.7082   95.8864   -3.8423 C.ar    1  UNL1        0.0669
     24 H          54.1475   95.7178   -0.3886 H       1  UNL1        0.1437
     25 H          55.2669   95.3220   -1.6127 H       1  UNL1        0.1437
     26 C          62.0294   92.7081   -0.6759 C.3     1  UNL1        0.2119
     27 C          65.3215   96.6853    0.4312 C.3     1  UNL1        0.0540
     28 C          64.2279   95.6650    0.5446 C.ar    1  UNL1        0.0801
     29 C          63.3103   95.4827    1.7171 C.ar    1  UNL1        0.0308
     30 C          62.3751   94.3529    1.4027 C.ar    1  UNL1        0.0577
     31 C          61.2907   93.8307    2.2979 C.3     1  UNL1        0.0518
     32 N          62.7147   93.8369    0.0357 N.ar    1  UNL1       -0.2458
     33 N          63.8598   94.6478   -0.4946 N.ar    1  UNL1       -0.1735
@<TRIPOS>BOND
     1    27    28    1
     2    28    29   ar
     3    29    30   ar
     4    30    31    1
     5    30    32   ar
     6    32    26    1
     7    26     1    1
     8     1     2    2
     9     1     3   am
    10     3     4    1
    11     4     5    1
    12     5     6    1
    13     6     7   ar
    14     7     8   ar
    15     8     9   ar
    16     9    10   ar
    17    10    13    1
    18    13    14   ar
    19    14    15   ar
    20    15    16    1
    21    15    17   ar
    22    17    18   ar
    23    18    19   ar
    24    19    20   ar
    25    20    21   ar
    26    21    22    1
    27    21    23   ar
    28    10    11   ar
    29    11    12    1
    30    32    33   ar
    31    33    28   ar
    32     7     3    1
    33    23    13   ar
    34    11     6   ar
    35    23    17   ar
    36    22    24    1
    37    22    25    1
