@<TRIPOS>MOLECULE
*****
 31 34 0 0 0
SMALL
GASTEIGER

@<TRIPOS>ATOM
      1 N          63.2373   89.9170   12.4831 N.ar    1  UNL1       -0.2590
      2 C          63.9938   90.9757   11.7368 C.ar    1  UNL1        0.3359
      3 O          64.0852   91.1083   10.2455 O.2     1  UNL1       -0.2459
      4 N          64.6429   91.8783   12.7437 N.ar    1  UNL1       -0.2691
      5 C          64.2875   91.3776   14.1123 C.ar    1  UNL1        0.0997
      6 C          64.6427   91.8688   15.4843 C.ar    1  UNL1        0.1176
      7 N          64.1292   91.1478   16.6953 N.ar    1  UNL1       -0.2407
      8 C          63.2605   89.9356   16.5342 C.ar    1  UNL1        0.1005
      9 C          62.9053   89.4444   15.1622 C.ar    1  UNL1        0.0398
     10 C          63.4188   90.1654   13.9512 C.ar    1  UNL1        0.0871
     11 C          60.5603   90.4918   11.2567 C.3     1  UNL1        0.0342
     12 C          61.1008   89.0926   11.2559 C.ar    1  UNL1        0.0135
     13 C          60.3028   87.9807   10.6419 C.ar    1  UNL1        0.0960
     14 N          60.8433   86.5814   10.6410 N.ar    1  UNL1       -0.2440
     15 C          62.1817   86.2941   11.2542 C.ar    1  UNL1        0.0849
     16 C          62.9797   87.4059   11.8682 C.ar    1  UNL1        0.0365
     17 C          62.4393   88.8051   11.8691 C.ar    1  UNL1        0.0673
     18 C          62.7222   84.8948   11.2534 C.ar    1  UNL1        0.0460
     19 C          62.6083   84.0460   12.4848 C.ar    1  UNL1        0.0151
     20 C          63.1487   82.6468   12.4840 C.ar    1  UNL1        0.0579
     21 CL         63.0348   81.7980   13.7155 Cl      1  UNL1       -0.0822
     22 C          63.8032   82.0963   11.2516 C.ar    1  UNL1        0.0137
     23 C          63.9171   82.9451   10.0202 C.ar    1  UNL1        0.0306
     24 C          63.3766   84.3443   10.0210 C.ar    1  UNL1        0.1416
     25 F          63.4906   85.1931    8.7895 F       1  UNL1       -0.2041
     26 C          65.4973   93.0722   12.4361 C.3     1  UNL1        0.1952
     27 C          66.3699   93.0756   11.2160 C.2     1  UNL1        0.2426
     28 N          65.8590   93.6549    9.9301 N.am    1  UNL1       -0.3272
     29 O          67.7534   92.4998   11.2817 O.2     1  UNL1       -0.2732
     30 H          64.9510   94.0329    9.8870 H       1  UNL1        0.1450
     31 H          66.4317   93.6572    9.1293 H       1  UNL1        0.1450
@<TRIPOS>BOND
     1    11    12    1
     2    12    13   ar
     3    13    14   ar
     4    14    15   ar
     5    15    18    1
     6    18    19   ar
     7    19    20   ar
     8    20    21    1
     9    20    22   ar
    10    22    23   ar
    11    23    24   ar
    12    24    25    1
    13    15    16   ar
    14    16    17   ar
    15    17     1    1
    16     1     2   ar
    17     2     3    2
    18     2     4   ar
    19     4    26    1
    20    26    27    1
    21    27    28   am
    22    27    29    2
    23     4     5   ar
    24     5     6   ar
    25     6     7   ar
    26     7     8   ar
    27     8     9   ar
    28     9    10   ar
    29    17    12   ar
    30    10     1   ar
    31    24    18   ar
    32    10     5   ar
    33    28    30    1
    34    28    31    1
@<TRIPOS>MOLECULE
*****
 31 34 0 0 0
SMALL
GASTEIGER

@<TRIPOS>ATOM
      1 N          63.5063   90.0118   12.6771 N.ar    1  UNL1       -0.2590
      2 C          63.8730   90.1005   14.1289 C.ar    1  UNL1        0.3359
      3 O          63.4419   89.1507   15.2068 O.2     1  UNL1       -0.2459
      4 N          64.7466   91.3058   14.3134 N.ar    1  UNL1       -0.2691
      5 C          64.9198   91.9620   12.9757 C.ar    1  UNL1        0.0997
      6 C          65.6765   93.1845   12.5479 C.ar    1  UNL1        0.1176
      7 N          65.6666   93.6071   11.1087 N.ar    1  UNL1       -0.2407
      8 C          64.9000   92.8074   10.0974 C.ar    1  UNL1        0.1005
      9 C          64.1433   91.5850   10.5253 C.ar    1  UNL1        0.0398
     10 C          64.1532   91.1623   11.9644 C.ar    1  UNL1        0.0871
     11 C          60.8389   90.7500   11.5192 C.3     1  UNL1        0.0342
     12 C          61.3103   89.3268   11.4694 C.ar    1  UNL1        0.0135
     13 C          60.4480   88.2727   10.8406 C.ar    1  UNL1        0.0960
     14 N          60.9193   86.8496   10.7908 N.ar    1  UNL1       -0.2440
     15 C          62.2529   86.4805   11.3698 C.ar    1  UNL1        0.0849
     16 C          63.1152   87.5346   11.9985 C.ar    1  UNL1        0.0365
     17 C          62.6440   88.9577   12.0484 C.ar    1  UNL1        0.0673
     18 C          62.7243   85.0574   11.3200 C.ar    1  UNL1        0.0460
     19 C          62.6168   84.1886   12.5380 C.ar    1  UNL1        0.0151
     20 C          63.0882   82.7655   12.4882 C.ar    1  UNL1        0.0579
     21 CL         62.9806   81.8967   13.7063 Cl      1  UNL1       -0.0822
     22 C          63.6670   82.2111   11.2203 C.ar    1  UNL1        0.0137
     23 C          63.7745   83.0798   10.0022 C.ar    1  UNL1        0.0306
     24 C          63.3032   84.5030   10.0521 C.ar    1  UNL1        0.1416
     25 F          63.4107   85.3717    8.8340 F       1  UNL1       -0.2041
     26 C          65.3425   91.7729   15.6083 C.3     1  UNL1        0.1952
     27 C          66.7919   92.1541   15.6727 C.2     1  UNL1        0.2426
     28 N          67.8215   91.3061   14.9866 N.am    1  UNL1       -0.3272
     29 O          67.2116   93.3831   16.4232 O.2     1  UNL1       -0.2732
     30 H          67.5461   90.4994   14.4940 H       1  UNL1        0.1450
     31 H          68.7728   91.5562   15.0288 H       1  UNL1        0.1450
@<TRIPOS>BOND
     1    11    12    1
     2    12    13   ar
     3    13    14   ar
     4    14    15   ar
     5    15    18    1
     6    18    19   ar
     7    19    20   ar
     8    20    21    1
     9    20    22   ar
    10    22    23   ar
    11    23    24   ar
    12    24    25    1
    13    15    16   ar
    14    16    17   ar
    15    17     1    1
    16     1     2   ar
    17     2     3    2
    18     2     4   ar
    19     4    26    1
    20    26    27    1
    21    27    28   am
    22    27    29    2
    23     4     5   ar
    24     5     6   ar
    25     6     7   ar
    26     7     8   ar
    27     8     9   ar
    28     9    10   ar
    29    17    12   ar
    30    10     1   ar
    31    24    18   ar
    32    10     5   ar
    33    28    30    1
    34    28    31    1
@<TRIPOS>MOLECULE
*****
 31 34 0 0 0
SMALL
GASTEIGER

@<TRIPOS>ATOM
      1 N          64.1821   89.8528   13.7397 N.ar    1  UNL1       -0.2590
      2 C          65.2515   90.8896   13.9170 C.ar    1  UNL1        0.3359
      3 O          66.1773   91.0096   15.0911 O.2     1  UNL1       -0.2459
      4 N          65.2325   91.7854   12.7141 N.ar    1  UNL1       -0.2691
      5 C          64.1514   91.3023   11.7933 C.ar    1  UNL1        0.0997
      6 C          63.6743   91.7956   10.4595 C.ar    1  UNL1        0.1176
      7 N          62.5479   91.0945    9.7597 N.ar    1  UNL1       -0.2407
      8 C          61.8987   89.9001   10.3936 C.ar    1  UNL1        0.1005
      9 C          62.3759   89.4067   11.7274 C.ar    1  UNL1        0.0398
     10 C          63.5022   90.1078   12.4272 C.ar    1  UNL1        0.0871
     11 C          63.3930   90.5186   16.5566 C.3     1  UNL1        0.0342
     12 C          63.4562   89.0868   16.1139 C.ar    1  UNL1        0.0135
     13 C          63.1248   87.9878   17.0796 C.ar    1  UNL1        0.0960
     14 N          63.1880   86.5561   16.6369 N.ar    1  UNL1       -0.2440
     15 C          63.5825   86.2232   15.2285 C.ar    1  UNL1        0.0849
     16 C          63.9139   87.3221   14.2628 C.ar    1  UNL1        0.0365
     17 C          63.8507   88.7539   14.7054 C.ar    1  UNL1        0.0673
     18 C          63.6457   84.7914   14.7859 C.ar    1  UNL1        0.0460
     19 C          62.4047   83.9489   14.7922 C.ar    1  UNL1        0.0151
     20 C          62.4679   82.5171   14.3495 C.ar    1  UNL1        0.0579
     21 CL         61.2268   81.6746   14.3558 Cl      1  UNL1       -0.0822
     22 C          63.7721   81.9278   13.9005 C.ar    1  UNL1        0.0137
     23 C          65.0131   82.7703   13.8941 C.ar    1  UNL1        0.0306
     24 C          64.9500   84.2021   14.3368 C.ar    1  UNL1        0.1416
     25 F          66.1910   85.0445   14.3305 F       1  UNL1       -0.2041
     26 C          66.1360   92.9585   12.4740 C.3     1  UNL1        0.1952
     27 C          66.9265   93.0484   11.2023 C.2     1  UNL1        0.2426
     28 N          68.1930   92.2594   11.0491 N.am    1  UNL1       -0.3272
     29 O          66.4505   93.9274   10.0839 O.2     1  UNL1       -0.2732
     30 H          68.5054   91.6825   11.7831 H       1  UNL1        0.1450
     31 H          68.7118   92.3184   10.2144 H       1  UNL1        0.1450
@<TRIPOS>BOND
     1    11    12    1
     2    12    13   ar
     3    13    14   ar
     4    14    15   ar
     5    15    18    1
     6    18    19   ar
     7    19    20   ar
     8    20    21    1
     9    20    22   ar
    10    22    23   ar
    11    23    24   ar
    12    24    25    1
    13    15    16   ar
    14    16    17   ar
    15    17     1    1
    16     1     2   ar
    17     2     3    2
    18     2     4   ar
    19     4    26    1
    20    26    27    1
    21    27    28   am
    22    27    29    2
    23     4     5   ar
    24     5     6   ar
    25     6     7   ar
    26     7     8   ar
    27     8     9   ar
    28     9    10   ar
    29    17    12   ar
    30    10     1   ar
    31    24    18   ar
    32    10     5   ar
    33    28    30    1
    34    28    31    1
@<TRIPOS>MOLECULE
*****
 31 34 0 0 0
SMALL
GASTEIGER

@<TRIPOS>ATOM
      1 N          63.8856   90.2108   12.9611 N.ar    1  UNL1       -0.2590
      2 C          64.2782   90.4006   14.3963 C.ar    1  UNL1        0.3359
      3 O          63.9123   89.4981   15.5372 O.2     1  UNL1       -0.2459
      4 N          65.1008   91.6513   14.4903 N.ar    1  UNL1       -0.2691
      5 C          65.2167   92.2345   13.1132 C.ar    1  UNL1        0.0997
      6 C          65.9091   93.4613   12.5978 C.ar    1  UNL1        0.1176
      7 N          65.8503   93.7977   11.1372 N.ar    1  UNL1       -0.2407
      8 C          65.0993   92.9074   10.1921 C.ar    1  UNL1        0.1005
      9 C          64.4069   91.6807   10.7075 C.ar    1  UNL1        0.0398
     10 C          64.4656   91.3442   12.1681 C.ar    1  UNL1        0.0871
     11 C          61.3953   90.8019   11.3960 C.3     1  UNL1        0.0342
     12 C          61.8130   89.3808   11.6322 C.ar    1  UNL1        0.0135
     13 C          60.9857   88.2552   11.0859 C.ar    1  UNL1        0.0960
     14 N          61.4034   86.8340   11.3221 N.ar    1  UNL1       -0.2440
     15 C          62.6485   86.5385   12.1046 C.ar    1  UNL1        0.0849
     16 C          63.4759   87.6641   12.6509 C.ar    1  UNL1        0.0365
     17 C          63.0582   89.0852   12.4148 C.ar    1  UNL1        0.0673
     18 C          63.0663   85.1173   12.3408 C.ar    1  UNL1        0.0460
     19 C          63.0517   84.1332   11.2088 C.ar    1  UNL1        0.0151
     20 C          63.4694   82.7121   11.4450 C.ar    1  UNL1        0.0579
     21 CL         63.4548   81.7280   10.3129 Cl      1  UNL1       -0.0822
     22 C          63.9018   82.2749   12.8132 C.ar    1  UNL1        0.0137
     23 C          63.9163   83.2590   13.9452 C.ar    1  UNL1        0.0306
     24 C          63.4986   84.6801   13.7090 C.ar    1  UNL1        0.1416
     25 F          63.5132   85.6641   14.8410 F       1  UNL1       -0.2041
     26 C          65.7021   92.2192   15.7417 C.3     1  UNL1        0.1952
     27 C          67.1771   92.4834   15.8122 C.2     1  UNL1        0.2426
     28 N          68.1465   91.4725   15.2753 N.am    1  UNL1       -0.3272
     29 O          67.6824   93.7584   16.4195 O.2     1  UNL1       -0.2732
     30 H          67.8148   90.6356   14.8767 H       1  UNL1        0.1450
     31 H          69.1145   91.6458   15.3215 H       1  UNL1        0.1450
@<TRIPOS>BOND
     1    11    12    1
     2    12    13   ar
     3    13    14   ar
     4    14    15   ar
     5    15    18    1
     6    18    19   ar
     7    19    20   ar
     8    20    21    1
     9    20    22   ar
    10    22    23   ar
    11    23    24   ar
    12    24    25    1
    13    15    16   ar
    14    16    17   ar
    15    17     1    1
    16     1     2   ar
    17     2     3    2
    18     2     4   ar
    19     4    26    1
    20    26    27    1
    21    27    28   am
    22    27    29    2
    23     4     5   ar
    24     5     6   ar
    25     6     7   ar
    26     7     8   ar
    27     8     9   ar
    28     9    10   ar
    29    17    12   ar
    30    10     1   ar
    31    24    18   ar
    32    10     5   ar
    33    28    30    1
    34    28    31    1
@<TRIPOS>MOLECULE
*****
 31 34 0 0 0
SMALL
GASTEIGER

@<TRIPOS>ATOM
      1 N          64.3388   90.0749   13.7177 N.ar    1  UNL1       -0.2590
      2 C          65.4059   91.0924   13.9934 C.ar    1  UNL1        0.3359
      3 O          66.2704   91.1540   15.2176 O.2     1  UNL1       -0.2459
      4 N          65.4567   92.0376   12.8297 N.ar    1  UNL1       -0.2691
      5 C          64.4210   91.6042   11.8349 C.ar    1  UNL1        0.0997
      6 C          64.0179   92.1574   10.5002 C.ar    1  UNL1        0.1176
      7 N          62.9238   91.4976    9.7144 N.ar    1  UNL1       -0.2407
      8 C          62.2329   90.2845   10.2633 C.ar    1  UNL1        0.1005
      9 C          62.6361   89.7313   11.5979 C.ar    1  UNL1        0.0398
     10 C          63.7302   90.3912   12.3838 C.ar    1  UNL1        0.0871
     11 C          63.5394   90.6199   16.5575 C.3     1  UNL1        0.0342
     12 C          63.5491   89.2128   16.0380 C.ar    1  UNL1        0.0135
     13 C          63.1592   88.0781   16.9383 C.ar    1  UNL1        0.0960
     14 N          63.1689   86.6710   16.4187 N.ar    1  UNL1       -0.2440
     15 C          63.5687   86.3986   14.9989 C.ar    1  UNL1        0.0849
     16 C          63.9586   87.5332   14.0986 C.ar    1  UNL1        0.0365
     17 C          63.9489   88.9403   14.6180 C.ar    1  UNL1        0.0673
     18 C          63.5784   84.9914   14.4794 C.ar    1  UNL1        0.0460
     19 C          64.1636   84.6939   13.1307 C.ar    1  UNL1        0.0151
     20 C          64.1734   83.2868   12.6111 C.ar    1  UNL1        0.0579
     21 CL         64.7587   82.9893   11.2624 Cl      1  UNL1       -0.0822
     22 C          63.5980   82.1771   13.4403 C.ar    1  UNL1        0.0137
     23 C          63.0128   82.4747   14.7890 C.ar    1  UNL1        0.0306
     24 C          63.0030   83.8818   15.3085 C.ar    1  UNL1        0.1416
     25 F          62.4178   84.1792   16.6572 F       1  UNL1       -0.2041
     26 C          66.3809   93.2103   12.6860 C.3     1  UNL1        0.1952
     27 C          67.1619   93.3990   11.4192 C.2     1  UNL1        0.2426
     28 N          67.9435   92.2559   10.8427 N.am    1  UNL1       -0.3272
     29 O          67.1611   94.7307   10.7290 O.2     1  UNL1       -0.2732
     30 H          67.9440   91.3818   11.2957 H       1  UNL1        0.1450
     31 H          68.4560   92.3797   10.0113 H       1  UNL1        0.1450
@<TRIPOS>BOND
     1    11    12    1
     2    12    13   ar
     3    13    14   ar
     4    14    15   ar
     5    15    18    1
     6    18    19   ar
     7    19    20   ar
     8    20    21    1
     9    20    22   ar
    10    22    23   ar
    11    23    24   ar
    12    24    25    1
    13    15    16   ar
    14    16    17   ar
    15    17     1    1
    16     1     2   ar
    17     2     3    2
    18     2     4   ar
    19     4    26    1
    20    26    27    1
    21    27    28   am
    22    27    29    2
    23     4     5   ar
    24     5     6   ar
    25     6     7   ar
    26     7     8   ar
    27     8     9   ar
    28     9    10   ar
    29    17    12   ar
    30    10     1   ar
    31    24    18   ar
    32    10     5   ar
    33    28    30    1
    34    28    31    1
@<TRIPOS>MOLECULE
*****
 31 34 0 0 0
SMALL
GASTEIGER

@<TRIPOS>ATOM
      1 N          63.4328   90.3613   11.8015 N.ar    1  UNL1       -0.2590
      2 C          63.7141   91.3177   10.6807 C.ar    1  UNL1        0.3359
      3 O          63.2044   91.2026    9.2746 O.2     1  UNL1       -0.2459
      4 N          64.5945   92.4093   11.2128 N.ar    1  UNL1       -0.2691
      5 C          64.8574   92.1277   12.6625 C.ar    1  UNL1        0.0997
      6 C          65.6578   92.8602   13.6982 C.ar    1  UNL1        0.1176
      7 N          65.7402   92.3270   15.0978 N.ar    1  UNL1       -0.2407
      8 C          65.0222   91.0612   15.4616 C.ar    1  UNL1        0.1005
      9 C          64.2219   90.3287   14.4259 C.ar    1  UNL1        0.0398
     10 C          64.1394   90.8619   13.0263 C.ar    1  UNL1        0.0871
     11 C          60.5268   90.5673   11.0852 C.3     1  UNL1        0.0342
     12 C          61.1395   89.2250   11.3549 C.ar    1  UNL1        0.0135
     13 C          60.2991   87.9856   11.2665 C.ar    1  UNL1        0.0960
     14 N          60.9118   86.6432   11.5362 N.ar    1  UNL1       -0.2440
     15 C          62.3647   86.5403   11.8944 C.ar    1  UNL1        0.0849
     16 C          63.2051   87.7796   11.9828 C.ar    1  UNL1        0.0365
     17 C          62.5925   89.1220   11.7131 C.ar    1  UNL1        0.0673
     18 C          62.9774   85.1979   12.1641 C.ar    1  UNL1        0.0460
     19 C          62.8678   84.1046   11.1430 C.ar    1  UNL1        0.0151
     20 C          63.4804   82.7623   11.4127 C.ar    1  UNL1        0.0579
     21 CL         63.3708   81.6689   10.3915 Cl      1  UNL1       -0.0822
     22 C          64.2027   82.5132   12.7035 C.ar    1  UNL1        0.0137
     23 C          64.3123   83.6065   13.7246 C.ar    1  UNL1        0.0306
     24 C          63.6997   84.9488   13.4549 C.ar    1  UNL1        0.1416
     25 F          63.8093   86.0421   14.4760 F       1  UNL1       -0.2041
     26 C          65.1198   93.5776   10.4323 C.3     1  UNL1        0.1952
     27 C          66.3895   94.2539   10.8576 C.2     1  UNL1        0.2426
     28 N          66.3378   95.6016   11.5140 N.am    1  UNL1       -0.3272
     29 O          67.7107   93.5823   10.6266 O.2     1  UNL1       -0.2732
     30 H          65.4707   96.0424   11.6657 H       1  UNL1        0.1450
     31 H          67.1711   96.0455   11.7932 H       1  UNL1        0.1450
@<TRIPOS>BOND
     1    11    12    1
     2    12    13   ar
     3    13    14   ar
     4    14    15   ar
     5    15    18    1
     6    18    19   ar
     7    19    20   ar
     8    20    21    1
     9    20    22   ar
    10    22    23   ar
    11    23    24   ar
    12    24    25    1
    13    15    16   ar
    14    16    17   ar
    15    17     1    1
    16     1     2   ar
    17     2     3    2
    18     2     4   ar
    19     4    26    1
    20    26    27    1
    21    27    28   am
    22    27    29    2
    23     4     5   ar
    24     5     6   ar
    25     6     7   ar
    26     7     8   ar
    27     8     9   ar
    28     9    10   ar
    29    17    12   ar
    30    10     1   ar
    31    24    18   ar
    32    10     5   ar
    33    28    30    1
    34    28    31    1
@<TRIPOS>MOLECULE
*****
 31 34 0 0 0
SMALL
GASTEIGER

@<TRIPOS>ATOM
      1 N          63.7283   86.7629   14.1166 N.ar    1  UNL1       -0.2590
      2 C          64.2219   85.4622   14.6772 C.ar    1  UNL1        0.3359
      3 O          64.8698   85.2683   16.0161 O.2     1  UNL1       -0.2459
      4 N          63.9540   84.3893   13.6637 N.ar    1  UNL1       -0.2691
      5 C          63.2947   85.0270   12.4768 C.ar    1  UNL1        0.0997
      6 C          62.8034   84.4614   11.1773 C.ar    1  UNL1        0.1176
      7 N          62.1726   85.3628   10.1578 N.ar    1  UNL1       -0.2407
      8 C          62.0331   86.8299   10.4377 C.ar    1  UNL1        0.1005
      9 C          62.5244   87.3955   11.7372 C.ar    1  UNL1        0.0398
     10 C          63.1552   86.4940   12.7567 C.ar    1  UNL1        0.0871
     11 C          62.5444   87.1156   16.8506 C.3     1  UNL1        0.0342
     12 C          63.2038   88.2746   16.1636 C.ar    1  UNL1        0.0135
     13 C          63.2713   89.6099   16.8436 C.ar    1  UNL1        0.0960
     14 N          63.9308   90.7689   16.1566 N.ar    1  UNL1       -0.2440
     15 C          64.5227   90.5926   14.7897 C.ar    1  UNL1        0.0849
     16 C          64.4552   89.2572   14.1097 C.ar    1  UNL1        0.0365
     17 C          63.7958   88.0983   14.7966 C.ar    1  UNL1        0.0673
     18 C          65.1821   91.7515   14.1028 C.ar    1  UNL1        0.0460
     19 C          64.9676   91.9743   12.6350 C.ar    1  UNL1        0.0151
     20 C          65.6270   93.1333   11.9481 C.ar    1  UNL1        0.0579
     21 CL         65.4125   93.3561   10.4802 Cl      1  UNL1       -0.0822
     22 C          66.5010   94.0696   12.7289 C.ar    1  UNL1        0.0137
     23 C          66.7155   93.8468   14.1966 C.ar    1  UNL1        0.0306
     24 C          66.0561   92.6878   14.8836 C.ar    1  UNL1        0.1416
     25 F          66.2706   92.4651   16.3513 F       1  UNL1       -0.2041
     26 C          64.2868   82.9341   13.8111 C.3     1  UNL1        0.1952
     27 C          63.1948   81.9067   13.7669 C.2     1  UNL1        0.2426
     28 N          62.1782   81.8448   14.8681 N.am    1  UNL1       -0.3272
     29 O          63.1193   80.9412   12.6214 O.2     1  UNL1       -0.2732
     30 H          62.2277   82.4785   15.6199 H       1  UNL1        0.1450
     31 H          61.4614   81.1705   14.8391 H       1  UNL1        0.1450
@<TRIPOS>BOND
     1    11    12    1
     2    12    13   ar
     3    13    14   ar
     4    14    15   ar
     5    15    18    1
     6    18    19   ar
     7    19    20   ar
     8    20    21    1
     9    20    22   ar
    10    22    23   ar
    11    23    24   ar
    12    24    25    1
    13    15    16   ar
    14    16    17   ar
    15    17     1    1
    16     1     2   ar
    17     2     3    2
    18     2     4   ar
    19     4    26    1
    20    26    27    1
    21    27    28   am
    22    27    29    2
    23     4     5   ar
    24     5     6   ar
    25     6     7   ar
    26     7     8   ar
    27     8     9   ar
    28     9    10   ar
    29    17    12   ar
    30    10     1   ar
    31    24    18   ar
    32    10     5   ar
    33    28    30    1
    34    28    31    1
@<TRIPOS>MOLECULE
*****
 31 34 0 0 0
SMALL
GASTEIGER

@<TRIPOS>ATOM
      1 N          63.3384   89.1111   12.3161 N.ar    1  UNL1       -0.2590
      2 C          63.5194   87.7290   12.8703 C.ar    1  UNL1        0.3359
      3 O          64.4836   87.3306   13.9481 O.2     1  UNL1       -0.2459
      4 N          62.5669   86.8154   12.1576 N.ar    1  UNL1       -0.2691
      5 C          61.7973   87.6328   11.1628 C.ar    1  UNL1        0.0997
      6 C          60.7239   87.2684   10.1804 C.ar    1  UNL1        0.1176
      7 N          60.1273   88.3228    9.2960 N.ar    1  UNL1       -0.2407
      8 C          60.6041   89.7417    9.3940 C.ar    1  UNL1        0.1005
      9 C          61.6775   90.1060   10.3764 C.ar    1  UNL1        0.0398
     10 C          62.2741   89.0516   11.2607 C.ar    1  UNL1        0.0871
     11 C          63.4697   89.8565   15.2191 C.3     1  UNL1        0.0342
     12 C          64.1554   90.7101   14.1938 C.ar    1  UNL1        0.0135
     13 C          64.9068   91.9364   14.6201 C.ar    1  UNL1        0.0960
     14 N          65.5925   92.7899   13.5948 N.ar    1  UNL1       -0.2440
     15 C          65.5269   92.4172   12.1433 C.ar    1  UNL1        0.0849
     16 C          64.7755   91.1909   11.7171 C.ar    1  UNL1        0.0365
     17 C          64.0898   90.3374   12.7423 C.ar    1  UNL1        0.0673
     18 C          66.2126   93.2708   11.1181 C.ar    1  UNL1        0.0460
     19 C          65.6795   94.6366   10.8012 C.ar    1  UNL1        0.0151
     20 C          66.3652   95.4901    9.7760 C.ar    1  UNL1        0.0579
     21 CL         65.8320   96.8560    9.4591 Cl      1  UNL1       -0.0822
     22 C          67.5842   94.9780    9.0675 C.ar    1  UNL1        0.0137
     23 C          68.1173   93.6122    9.3844 C.ar    1  UNL1        0.0306
     24 C          67.4316   92.7586   10.4096 C.ar    1  UNL1        0.1416
     25 F          67.9648   91.3929   10.7265 F       1  UNL1       -0.2041
     26 C          62.4114   85.3429   12.3974 C.3     1  UNL1        0.1952
     27 C          63.1678   84.6803   13.5105 C.2     1  UNL1        0.2426
     28 N          62.7193   84.8567   14.9310 N.am    1  UNL1       -0.3272
     29 O          64.3726   83.8414   13.2031 O.2     1  UNL1       -0.2732
     30 H          61.9285   85.4073   15.1328 H       1  UNL1        0.1450
     31 H          63.2157   84.4218   15.6616 H       1  UNL1        0.1450
@<TRIPOS>BOND
     1    11    12    1
     2    12    13   ar
     3    13    14   ar
     4    14    15   ar
     5    15    18    1
     6    18    19   ar
     7    19    20   ar
     8    20    21    1
     9    20    22   ar
    10    22    23   ar
    11    23    24   ar
    12    24    25    1
    13    15    16   ar
    14    16    17   ar
    15    17     1    1
    16     1     2   ar
    17     2     3    2
    18     2     4   ar
    19     4    26    1
    20    26    27    1
    21    27    28   am
    22    27    29    2
    23     4     5   ar
    24     5     6   ar
    25     6     7   ar
    26     7     8   ar
    27     8     9   ar
    28     9    10   ar
    29    17    12   ar
    30    10     1   ar
    31    24    18   ar
    32    10     5   ar
    33    28    30    1
    34    28    31    1
@<TRIPOS>MOLECULE
*****
 31 34 0 0 0
SMALL
GASTEIGER

@<TRIPOS>ATOM
      1 N          63.3883   89.0682   12.4348 N.ar    1  UNL1       -0.2590
      2 C          62.3566   88.9659   11.3508 C.ar    1  UNL1        0.3359
      3 O          61.8732   90.0911   10.4846 O.2     1  UNL1       -0.2459
      4 N          61.8931   87.5408   11.2850 N.ar    1  UNL1       -0.2691
      5 C          62.6384   86.7624   12.3284 C.ar    1  UNL1        0.0997
      6 C          62.5950   85.3159   12.7232 C.ar    1  UNL1        0.1176
      7 N          63.4756   84.8135   13.8287 N.ar    1  UNL1       -0.2407
      8 C          64.3997   85.7575   14.5393 C.ar    1  UNL1        0.1005
      9 C          64.4431   87.2039   14.1444 C.ar    1  UNL1        0.0398
     10 C          63.5625   87.7064   13.0390 C.ar    1  UNL1        0.0871
     11 C          63.5472   89.8324   15.3316 C.3     1  UNL1        0.0342
     12 C          64.1972   90.6958   14.2914 C.ar    1  UNL1        0.0135
     13 C          64.9267   91.9413   14.6996 C.ar    1  UNL1        0.0960
     14 N          65.5768   92.8047   13.6594 N.ar    1  UNL1       -0.2440
     15 C          65.4973   92.4226   12.2111 C.ar    1  UNL1        0.0849
     16 C          64.7678   91.1771   11.8029 C.ar    1  UNL1        0.0365
     17 C          64.1178   90.3137   12.8430 C.ar    1  UNL1        0.0673
     18 C          66.1474   93.2860   11.1709 C.ar    1  UNL1        0.0460
     19 C          65.5803   94.6389   10.8579 C.ar    1  UNL1        0.0151
     20 C          66.2304   95.5023    9.8178 C.ar    1  UNL1        0.0579
     21 CL         65.6632   96.8553    9.5048 Cl      1  UNL1       -0.0822
     22 C          67.4476   95.0128    9.0906 C.ar    1  UNL1        0.0137
     23 C          68.0146   93.6599    9.4036 C.ar    1  UNL1        0.0306
     24 C          67.3646   92.7965   10.4437 C.ar    1  UNL1        0.1416
     25 F          67.9317   91.4436   10.7567 F       1  UNL1       -0.2041
     26 C          60.8649   86.9907   10.3416 C.3     1  UNL1        0.1952
     27 C          61.2664   86.5629    8.9609 C.2     1  UNL1        0.2426
     28 N          62.5794   85.8713    8.7422 N.am    1  UNL1       -0.3272
     29 O          60.3550   86.8269    7.7992 O.2     1  UNL1       -0.2732
     30 H          63.1776   85.6981    9.5046 H       1  UNL1        0.1450
     31 H          62.8429   85.5906    7.8361 H       1  UNL1        0.1450
@<TRIPOS>BOND
     1    11    12    1
     2    12    13   ar
     3    13    14   ar
     4    14    15   ar
     5    15    18    1
     6    18    19   ar
     7    19    20   ar
     8    20    21    1
     9    20    22   ar
    10    22    23   ar
    11    23    24   ar
    12    24    25    1
    13    15    16   ar
    14    16    17   ar
    15    17     1    1
    16     1     2   ar
    17     2     3    2
    18     2     4   ar
    19     4    26    1
    20    26    27    1
    21    27    28   am
    22    27    29    2
    23     4     5   ar
    24     5     6   ar
    25     6     7   ar
    26     7     8   ar
    27     8     9   ar
    28     9    10   ar
    29    17    12   ar
    30    10     1   ar
    31    24    18   ar
    32    10     5   ar
    33    28    30    1
    34    28    31    1
