@<TRIPOS>MOLECULE
*****
 42 47 0 0 0
SMALL
GASTEIGER

@<TRIPOS>ATOM
      1 C          61.9968   89.6395   12.9791 C.3     1  UNL1        0.0341
      2 C          62.9499   90.5033   12.2075 C.ar    1  UNL1        0.0137
      3 C          63.0096   90.6349   10.7145 C.ar    1  UNL1        0.0699
      4 C          64.1073   91.6001   10.3778 C.ar    1  UNL1        0.1149
      5 N          64.7261   92.0650   11.6627 N.ar    1  UNL1       -0.2230
      6 N          65.8484   93.0181   11.9491 N.ar    1  UNL1       -0.1422
      7 C          66.2554   93.2932   13.3663 C.ar    1  UNL1        0.2211
      8 N          65.5401   92.6154   14.4972 N.ar    1  UNL1       -0.2060
      9 C          64.4178   91.6623   14.2108 C.ar    1  UNL1        0.1515
     10 C          64.0108   91.3872   12.7936 C.ar    1  UNL1        0.1118
     11 N          62.1266   89.9257    9.7309 N.am    1  UNL1       -0.2487
     12 C          60.6372   90.0850    9.8094 C.2     1  UNL1        0.4055
     13 O          60.0307   90.9534   10.8716 O.2     1  UNL1       -0.2261
     14 H          62.5247   89.3558    9.0338 H       1  UNL1        0.1582
     15 O          59.7542   89.3759    8.8258 O.3     1  UNL1       -0.4329
     16 C          59.4938   87.9062    8.9754 C.3     1  UNL1        0.2282
     17 C          60.5169   86.9122    8.5115 C.3     1  UNL1        0.1284
     18 C          60.2054   85.9941    7.3669 C.3     1  UNL1        0.1616
     19 O          61.2286   85.0000    6.9030 O.3     1  UNL1       -0.3507
     20 C          62.5631   84.9242    7.5837 C.3     1  UNL1        0.1592
     21 C          62.8744   85.8423    8.7283 C.3     1  UNL1        0.1012
     22 N          61.8513   86.8363    9.1922 N.3     1  UNL1       -0.2914
     23 H          62.2778   87.7590    9.1078 H       1  UNL1        0.1235
     24 N          63.7025   90.9845   15.3416 N.pl3   1  UNL1       -0.2967
     25 H          63.2016   91.5199   15.9987 H       1  UNL1        0.1537
     26 C          63.7503   89.4909   15.4714 C.ar    1  UNL1        0.0495
     27 C          64.6388   88.6876   14.5684 C.ar    1  UNL1        0.0162
     28 C          64.6867   87.1941   14.6982 C.ar    1  UNL1        0.0201
     29 C          63.8460   86.5036   15.7310 C.ar    1  UNL1        0.0798
     30 C          62.9575   87.3068   16.6340 C.ar    1  UNL1        0.0394
     31 C          62.2476   86.3559   17.5514 C.ar    1  UNL1        0.1216
     32 N          62.6974   84.9649   17.2153 N.ar    1  UNL1       -0.1674
     33 N          63.6852   85.0562   16.0903 N.ar    1  UNL1       -0.2464
     34 C          62.9096   88.8005   16.5042 C.ar    1  UNL1        0.0177
     35 C          64.3889   83.9026   15.4388 C.3     1  UNL1        0.1538
     36 C          63.8425   83.3081   14.1748 C.ar    1  UNL1        0.0043
     37 C          62.6750   82.3679   14.2316 C.ar    1  UNL1       -0.0022
     38 C          62.1286   81.7733   12.9675 C.ar    1  UNL1        0.0020
     39 C          62.7497   82.1189   11.6466 C.ar    1  UNL1        0.0296
     40 C          63.9171   83.0590   11.5898 C.ar    1  UNL1        0.1399
     41 F          64.5381   83.4044   10.2688 F       1  UNL1       -0.2042
     42 C          64.4635   83.6536   12.8538 C.ar    1  UNL1        0.0273
@<TRIPOS>BOND
     1     1     2    1
     2     2     3   ar
     3     3    11    1
     4    11    12   am
     5    12    13    2
     6    12    15    1
     7    15    16    1
     8    17    16    1
     9    17    18    1
    10    18    19    1
    11    19    20    1
    12    20    21    1
    13    21    22    1
    14     3     4   ar
    15     4     5   ar
    16     5     6   ar
    17     6     7   ar
    18     7     8   ar
    19     8     9   ar
    20     9    24    1
    21    24    26    1
    22    26    27   ar
    23    27    28   ar
    24    28    29   ar
    25    29    30   ar
    26    30    31   ar
    27    31    32   ar
    28    32    33   ar
    29    33    35    1
    30    35    36    1
    31    36    37   ar
    32    37    38   ar
    33    38    39   ar
    34    39    40   ar
    35    40    41    1
    36    40    42   ar
    37    30    34   ar
    38     9    10   ar
    39    10     2   ar
    40    22    17    1
    41    10     5   ar
    42    34    26   ar
    43    33    29   ar
    44    42    36   ar
    45    11    14    1
    46    22    23    1
    47    24    25    1
@<TRIPOS>MOLECULE
*****
 42 47 0 0 0
SMALL
GASTEIGER

@<TRIPOS>ATOM
      1 C          62.7591   86.4921   11.9312 C.3     1  UNL1        0.0341
      2 C          62.3150   86.3364   10.5069 C.ar    1  UNL1        0.0137
      3 C          62.7188   85.2344    9.5729 C.ar    1  UNL1        0.0699
      4 C          62.0424   85.4725    8.2554 C.ar    1  UNL1        0.1149
      5 N          61.2205   86.7215    8.3752 N.ar    1  UNL1       -0.2230
      6 N          60.3405   87.4417    7.3970 N.ar    1  UNL1       -0.1422
      7 C          59.6290   88.6958    7.8103 C.ar    1  UNL1        0.2211
      8 N          59.7975   89.2297    9.2019 N.ar    1  UNL1       -0.2060
      9 C          60.6775   88.5096   10.1801 C.ar    1  UNL1        0.1515
     10 C          61.3890   87.2555    9.7668 C.ar    1  UNL1        0.1118
     11 N          63.6377   84.0946    9.8990 N.am    1  UNL1       -0.2487
     12 C          63.2103   83.0439   10.8805 C.2     1  UNL1        0.4055
     13 O          61.8640   83.1331   11.5359 O.2     1  UNL1       -0.2261
     14 H          64.5213   84.0361    9.4689 H       1  UNL1        0.1582
     15 O          64.1292   81.9041   11.2066 O.3     1  UNL1       -0.4329
     16 C          64.6532   81.7389   12.6025 C.3     1  UNL1        0.2282
     17 C          64.3488   82.7734   13.6451 C.3     1  UNL1        0.1284
     18 C          63.2363   82.5456   14.6253 C.3     1  UNL1        0.1616
     19 O          62.9319   83.5801   15.6680 O.3     1  UNL1       -0.3507
     20 C          63.7400   84.8424   15.7305 C.3     1  UNL1        0.1592
     21 C          64.8524   85.0701   14.7503 C.3     1  UNL1        0.1012
     22 N          65.1568   84.0356   13.7077 N.3     1  UNL1       -0.2914
     23 H          66.1284   83.7568   13.8443 H       1  UNL1        0.1235
     24 N          60.8459   89.0436   11.5717 N.pl3   1  UNL1       -0.2967
     25 H          60.1883   88.8176   12.2686 H       1  UNL1        0.1537
     26 C          62.0163   89.9218   11.9014 C.ar    1  UNL1        0.0495
     27 C          62.4358   91.0017   10.9484 C.ar    1  UNL1        0.0162
     28 C          63.6062   91.8799   11.2782 C.ar    1  UNL1        0.0201
     29 C          64.3572   91.6784   12.5609 C.ar    1  UNL1        0.0798
     30 C          63.9378   90.5986   13.5139 C.ar    1  UNL1        0.0394
     31 C          64.8632   90.6365   14.6937 C.ar    1  UNL1        0.1216
     32 N          65.8546   91.7397   14.4700 N.ar    1  UNL1       -0.1674
     33 N          65.5419   92.3836   13.1518 N.ar    1  UNL1       -0.2464
     34 C          62.7674   89.7203   13.1841 C.ar    1  UNL1        0.0177
     35 C          66.2836   93.5314   12.5331 C.3     1  UNL1        0.1538
     36 C          66.9678   93.3560   11.2099 C.ar    1  UNL1        0.0043
     37 C          67.6634   92.0659   10.8903 C.ar    1  UNL1       -0.0022
     38 C          68.3476   91.8905    9.5671 C.ar    1  UNL1        0.0020
     39 C          68.3364   93.0052    8.5633 C.ar    1  UNL1        0.0296
     40 C          67.6409   94.2952    8.8829 C.ar    1  UNL1        0.1399
     41 F          67.6297   95.4098    7.8791 F       1  UNL1       -0.2042
     42 C          66.9567   94.4706   10.2061 C.ar    1  UNL1        0.0273
@<TRIPOS>BOND
     1     1     2    1
     2     2     3   ar
     3     3    11    1
     4    11    12   am
     5    12    13    2
     6    12    15    1
     7    15    16    1
     8    17    16    1
     9    17    18    1
    10    18    19    1
    11    19    20    1
    12    20    21    1
    13    21    22    1
    14     3     4   ar
    15     4     5   ar
    16     5     6   ar
    17     6     7   ar
    18     7     8   ar
    19     8     9   ar
    20     9    24    1
    21    24    26    1
    22    26    27   ar
    23    27    28   ar
    24    28    29   ar
    25    29    30   ar
    26    30    31   ar
    27    31    32   ar
    28    32    33   ar
    29    33    35    1
    30    35    36    1
    31    36    37   ar
    32    37    38   ar
    33    38    39   ar
    34    39    40   ar
    35    40    41    1
    36    40    42   ar
    37    30    34   ar
    38     9    10   ar
    39    10     2   ar
    40    22    17    1
    41    10     5   ar
    42    34    26   ar
    43    33    29   ar
    44    42    36   ar
    45    11    14    1
    46    22    23    1
    47    24    25    1
@<TRIPOS>MOLECULE
*****
 42 47 0 0 0
SMALL
GASTEIGER

@<TRIPOS>ATOM
      1 C          59.6231   90.1115    9.8072 C.3     1  UNL1        0.0341
      2 C          60.0430   88.9018    9.0260 C.ar    1  UNL1        0.0137
      3 C          59.6520   88.5853    7.6129 C.ar    1  UNL1        0.0699
      4 C          60.2951   87.2841    7.2344 C.ar    1  UNL1        0.1149
      5 N          61.0835   86.7964    8.4136 N.ar    1  UNL1       -0.2230
      6 N          61.9231   85.5710    8.6221 N.ar    1  UNL1       -0.1422
      7 C          62.6070   85.3455    9.9379 C.ar    1  UNL1        0.2211
      8 N          62.4512   86.3453   11.0452 N.ar    1  UNL1       -0.2060
      9 C          61.6116   87.5706   10.8367 C.ar    1  UNL1        0.1515
     10 C          60.9277   87.7962    9.5209 C.ar    1  UNL1        0.1118
     11 N          58.7724   89.4230    6.7328 N.am    1  UNL1       -0.2487
     12 C          59.3846   90.3473    5.7224 C.2     1  UNL1        0.4055
     13 O          60.8765   90.4339    5.5920 O.2     1  UNL1       -0.2261
     14 H          57.7933   89.3662    6.8183 H       1  UNL1        0.1582
     15 O          58.5050   91.1849    4.8422 O.3     1  UNL1       -0.4329
     16 C          58.9940   92.5096    4.3361 C.3     1  UNL1        0.2282
     17 C          59.7450   92.5864    3.0398 C.3     1  UNL1        0.1284
     18 C          61.2434   92.5165    3.0359 C.3     1  UNL1        0.1616
     19 O          61.9943   92.5932    1.7397 O.3     1  UNL1       -0.3507
     20 C          61.2469   92.7398    0.4474 C.3     1  UNL1        0.1592
     21 C          59.7485   92.8097    0.4514 C.3     1  UNL1        0.1012
     22 N          58.9976   92.7330    1.7476 N.3     1  UNL1       -0.2914
     23 H          58.3705   91.9316    1.6776 H       1  UNL1        0.1235
     24 N          61.4558   88.5704   11.9440 N.pl3   1  UNL1       -0.2967
     25 H          60.6572   88.5473   12.5194 H       1  UNL1        0.1537
     26 C          62.5166   89.6055   12.1747 C.ar    1  UNL1        0.0495
     27 C          62.7600   90.6718   11.1481 C.ar    1  UNL1        0.0162
     28 C          63.8208   91.7068   11.3788 C.ar    1  UNL1        0.0201
     29 C          64.6384   91.6756   12.6361 C.ar    1  UNL1        0.0798
     30 C          64.3951   90.6093   13.6626 C.ar    1  UNL1        0.0394
     31 C          65.3513   90.8309   14.7968 C.ar    1  UNL1        0.1216
     32 N          66.1856   92.0343   14.4713 N.ar    1  UNL1       -0.1674
     33 N          65.7450   92.5563   13.1358 N.ar    1  UNL1       -0.2464
     34 C          63.3342   89.5742   13.4319 C.ar    1  UNL1        0.0177
     35 C          66.3116   93.7495   12.4249 C.3     1  UNL1        0.1538
     36 C          66.9751   93.5820   11.0902 C.ar    1  UNL1        0.0043
     37 C          67.6459   92.2859   10.7434 C.ar    1  UNL1       -0.0022
     38 C          68.3094   92.1184    9.4087 C.ar    1  UNL1        0.0020
     39 C          68.3021   93.2470    8.4206 C.ar    1  UNL1        0.0296
     40 C          67.6314   94.5430    8.7673 C.ar    1  UNL1        0.1399
     41 F          67.6241   95.6716    7.7792 F       1  UNL1       -0.2042
     42 C          66.9678   94.7106   10.1021 C.ar    1  UNL1        0.0273
@<TRIPOS>BOND
     1     1     2    1
     2     2     3   ar
     3     3    11    1
     4    11    12   am
     5    12    13    2
     6    12    15    1
     7    15    16    1
     8    17    16    1
     9    17    18    1
    10    18    19    1
    11    19    20    1
    12    20    21    1
    13    21    22    1
    14     3     4   ar
    15     4     5   ar
    16     5     6   ar
    17     6     7   ar
    18     7     8   ar
    19     8     9   ar
    20     9    24    1
    21    24    26    1
    22    26    27   ar
    23    27    28   ar
    24    28    29   ar
    25    29    30   ar
    26    30    31   ar
    27    31    32   ar
    28    32    33   ar
    29    33    35    1
    30    35    36    1
    31    36    37   ar
    32    37    38   ar
    33    38    39   ar
    34    39    40   ar
    35    40    41    1
    36    40    42   ar
    37    30    34   ar
    38     9    10   ar
    39    10     2   ar
    40    22    17    1
    41    10     5   ar
    42    34    26   ar
    43    33    29   ar
    44    42    36   ar
    45    11    14    1
    46    22    23    1
    47    24    25    1
@<TRIPOS>MOLECULE
*****
 42 47 0 0 0
SMALL
GASTEIGER

@<TRIPOS>ATOM
      1 C          62.3317   86.4294   11.6389 C.3     1  UNL1        0.0341
      2 C          62.0842   86.0428   10.2109 C.ar    1  UNL1        0.0137
      3 C          62.7932   84.9580    9.4556 C.ar    1  UNL1        0.0699
      4 C          62.2314   84.9179    8.0654 C.ar    1  UNL1        0.1149
      5 N          61.1752   85.9779    7.9614 N.ar    1  UNL1       -0.2230
      6 N          60.2846   86.3999    6.8307 N.ar    1  UNL1       -0.1422
      7 C          59.3030   87.5172    7.0260 C.ar    1  UNL1        0.2211
      8 N          59.2120   88.2124    8.3520 N.ar    1  UNL1       -0.2060
      9 C          60.1026   87.7904    9.4828 C.ar    1  UNL1        0.1515
     10 C          61.0842   86.6732    9.2875 C.ar    1  UNL1        0.1118
     11 N          63.8742   84.0693    9.9957 N.am    1  UNL1       -0.2487
     12 C          63.5488   83.0413   11.0384 C.2     1  UNL1        0.4055
     13 O          62.1423   82.9020   11.5411 O.2     1  UNL1       -0.2261
     14 H          64.7972   84.1607    9.6658 H       1  UNL1        0.1582
     15 O          64.6297   82.1526   11.5785 O.3     1  UNL1       -0.4329
     16 C          64.7935   81.9864   13.0603 C.3     1  UNL1        0.2282
     17 C          64.2583   83.0298   13.9957 C.3     1  UNL1        0.1284
     18 C          65.0214   84.3024   14.2155 C.3     1  UNL1        0.1616
     19 O          64.4861   85.3458   15.1509 O.3     1  UNL1       -0.3507
     20 C          63.1878   85.1166   15.8664 C.3     1  UNL1        0.1592
     21 C          62.4248   83.8440   15.6465 C.3     1  UNL1        0.1012
     22 N          62.9600   82.8006   14.7112 N.3     1  UNL1       -0.2914
     23 H          62.2497   82.6564   13.9935 H       1  UNL1        0.1235
     24 N          60.0116   88.4856   10.8088 N.pl3   1  UNL1       -0.2967
     25 H          59.1862   88.4231   11.3418 H       1  UNL1        0.1537
     26 C          61.1782   89.2761   11.3228 C.ar    1  UNL1        0.0495
     27 C          62.0566   90.0255   10.3653 C.ar    1  UNL1        0.0162
     28 C          63.2232   90.8160   10.8794 C.ar    1  UNL1        0.0201
     29 C          63.5114   90.8570   12.3508 C.ar    1  UNL1        0.0798
     30 C          62.6330   90.1076   13.3083 C.ar    1  UNL1        0.0394
     31 C          63.1603   90.3326   14.6944 C.ar    1  UNL1        0.1216
     32 N          64.3647   91.2211   14.5936 N.ar    1  UNL1       -0.1674
     33 N          64.5816   91.5452   13.1452 N.ar    1  UNL1       -0.2464
     34 C          61.4664   89.3171   12.7943 C.ar    1  UNL1        0.0177
     35 C          65.6767   92.4063   12.5888 C.3     1  UNL1        0.1538
     36 C          66.9812   92.5258   13.3193 C.ar    1  UNL1        0.0043
     37 C          68.1819   91.7653   12.8396 C.ar    1  UNL1       -0.0022
     38 C          69.4865   91.8847   13.5702 C.ar    1  UNL1        0.0020
     39 C          69.5905   92.7648   14.7804 C.ar    1  UNL1        0.0296
     40 C          68.3899   93.5253   15.2601 C.ar    1  UNL1        0.1399
     41 F          68.4939   94.4054   16.4703 F       1  UNL1       -0.2042
     42 C          67.0853   93.4059   14.5296 C.ar    1  UNL1        0.0273
@<TRIPOS>BOND
     1     1     2    1
     2     2     3   ar
     3     3    11    1
     4    11    12   am
     5    12    13    2
     6    12    15    1
     7    15    16    1
     8    17    16    1
     9    17    18    1
    10    18    19    1
    11    19    20    1
    12    20    21    1
    13    21    22    1
    14     3     4   ar
    15     4     5   ar
    16     5     6   ar
    17     6     7   ar
    18     7     8   ar
    19     8     9   ar
    20     9    24    1
    21    24    26    1
    22    26    27   ar
    23    27    28   ar
    24    28    29   ar
    25    29    30   ar
    26    30    31   ar
    27    31    32   ar
    28    32    33   ar
    29    33    35    1
    30    35    36    1
    31    36    37   ar
    32    37    38   ar
    33    38    39   ar
    34    39    40   ar
    35    40    41    1
    36    40    42   ar
    37    30    34   ar
    38     9    10   ar
    39    10     2   ar
    40    22    17    1
    41    10     5   ar
    42    34    26   ar
    43    33    29   ar
    44    42    36   ar
    45    11    14    1
    46    22    23    1
    47    24    25    1
