@<TRIPOS>MOLECULE
*****
 30 32 0 0 0
SMALL
GASTEIGER

@<TRIPOS>ATOM
      1 C          65.4022   92.5411   12.7037 C.3     1  UNL1        0.0175
      2 C          64.5805   92.2423   11.4849 C.3     1  UNL1        0.0031
      3 C          63.7809   90.9752   11.4115 C.3     1  UNL1        0.0196
      4 C          63.8031   90.0070   12.5570 C.3     1  UNL1        0.0716
      5 C          64.6248   90.3058   13.7758 C.3     1  UNL1        0.0196
      6 C          65.4243   91.5728   13.8492 C.3     1  UNL1        0.0031
      7 N          63.0035   88.7400   12.4835 N.am    1  UNL1       -0.3046
      8 C          62.4094   88.3029   11.1774 C.2     1  UNL1        0.2427
      9 O          62.6149   89.1326    9.9448 O.2     1  UNL1       -0.2732
     10 H          62.8687   88.1954   13.2925 H       1  UNL1        0.1494
     11 C          61.6098   87.0358   11.1038 C.3     1  UNL1        0.1770
     12 N          62.2818   85.7448   10.7407 N.pl3   1  UNL1       -0.2997
     13 C          62.7470   85.3477    9.3711 C.3     1  UNL1        0.0959
     14 C          63.3593   83.9818    9.4675 C.3     1  UNL1        0.0490
     15 C          63.2726   83.5347   10.8967 C.ar    1  UNL1       -0.0063
     16 C          63.7140   82.2763   11.5832 C.ar    1  UNL1        0.0084
     17 C          63.4895   82.1074   13.0566 C.ar    1  UNL1        0.0574
     18 CL         63.9310   80.8489   13.7432 Cl      1  UNL1       -0.0823
     19 C          62.8236   83.1970   13.8436 C.ar    1  UNL1        0.0126
     20 C          62.3822   84.4555   13.1571 C.ar    1  UNL1        0.0151
     21 C          62.6067   84.6244   11.6836 C.ar    1  UNL1        0.0442
     22 C          66.2018   93.8081   12.7772 C.3     1  UNL1        0.0910
     23 N          65.8136   94.9895   11.9384 N.3     1  UNL1       -0.1834
     24 H          64.8148   94.9021   11.7509 H       1  UNL1        0.1484
     25 S          66.4834   95.2234   10.6168 S.O2    1  UNL1        0.0390
     26 O          65.5525   96.3684   10.3476 O.2     1  UNL1       -0.1576
     27 O          67.4144   94.0785   10.8858 O.2     1  UNL1       -0.1576
     28 C          67.7124   94.2996    8.5224 C.3     1  UNL1        0.0270
     29 C          67.1532   95.4574    9.2952 C.3     1  UNL1        0.1457
     30 C          67.2639   96.8488    8.7462 C.3     1  UNL1        0.0270
@<TRIPOS>BOND
     1    28    29    1
     2    29    30    1
     3    29    25    1
     4    25    26    2
     5    25    27    2
     6    25    23    1
     7    23    22    1
     8     1    22    1
     9     1     2    1
    10     2     3    1
    11     3     4    1
    12     4     7    1
    13     7     8   am
    14     8     9    2
    15     8    11    1
    16    11    12    1
    17    12    13    1
    18    13    14    1
    19    14    15    1
    20    15    16   ar
    21    16    17   ar
    22    17    18    1
    23    17    19   ar
    24    19    20   ar
    25    20    21   ar
    26     4     5    1
    27     5     6    1
    28     6     1    1
    29    21    12    1
    30    21    15   ar
    31    23    24    1
    32     7    10    1
@<TRIPOS>MOLECULE
*****
 30 32 0 0 0
SMALL
GASTEIGER

@<TRIPOS>ATOM
      1 C          63.6041   89.4740   16.2604 C.3     1  UNL1        0.0175
      2 C          64.1967   88.9923   14.9694 C.3     1  UNL1        0.0031
      3 C          64.2675   87.5223   14.6790 C.3     1  UNL1        0.0196
      4 C          63.7457   86.5341   15.6796 C.3     1  UNL1        0.0716
      5 C          63.1530   87.0158   16.9706 C.3     1  UNL1        0.0196
      6 C          63.0822   88.4857   17.2609 C.3     1  UNL1        0.0031
      7 N          63.8165   85.0642   15.3891 N.am    1  UNL1       -0.3046
      8 C          62.5556   84.2577   15.2902 C.2     1  UNL1        0.2427
      9 O          61.2240   84.9211   15.4817 O.2     1  UNL1       -0.2732
     10 H          64.6905   84.6288   15.2634 H       1  UNL1        0.1494
     11 C          62.6264   82.7878   14.9997 C.3     1  UNL1        0.1770
     12 N          62.8730   82.3111   13.5990 N.pl3   1  UNL1       -0.2997
     13 C          63.1257   80.8925   13.1820 C.3     1  UNL1        0.0959
     14 C          63.3191   80.8741   11.6947 C.3     1  UNL1        0.0490
     15 C          63.1860   82.2812   11.1924 C.ar    1  UNL1       -0.0063
     16 C          63.2803   82.8685    9.8154 C.ar    1  UNL1        0.0084
     17 C          63.0988   84.3439    9.6154 C.ar    1  UNL1        0.0574
     18 CL         63.1930   84.9313    8.2383 Cl      1  UNL1       -0.0823
     19 C          62.8231   85.2321   10.7923 C.ar    1  UNL1        0.0126
     20 C          62.7288   84.6448   12.1693 C.ar    1  UNL1        0.0151
     21 C          62.9103   83.1693   12.3693 C.ar    1  UNL1        0.0442
     22 C          63.5333   90.9439   16.5509 C.3     1  UNL1        0.0910
     23 N          63.9741   91.9351   15.5149 N.3     1  UNL1       -0.1834
     24 H          63.5880   91.6216   14.6244 H       1  UNL1        0.1484
     25 S          65.4359   92.1843   15.2895 S.O2    1  UNL1        0.0390
     26 O          65.2530   91.9303   13.8225 O.2     1  UNL1       -0.1576
     27 O          65.6189   92.4384   16.7564 O.2     1  UNL1       -0.1576
     28 C          67.7028   93.1619   16.0992 C.3     1  UNL1        0.0270
     29 C          66.8978   92.4336   15.0640 C.3     1  UNL1        0.1457
     30 C          67.5547   91.9546   13.8035 C.3     1  UNL1        0.0270
@<TRIPOS>BOND
     1    28    29    1
     2    29    30    1
     3    29    25    1
     4    25    26    2
     5    25    27    2
     6    25    23    1
     7    23    22    1
     8     1    22    1
     9     1     2    1
    10     2     3    1
    11     3     4    1
    12     4     7    1
    13     7     8   am
    14     8     9    2
    15     8    11    1
    16    11    12    1
    17    12    13    1
    18    13    14    1
    19    14    15    1
    20    15    16   ar
    21    16    17   ar
    22    17    18    1
    23    17    19   ar
    24    19    20   ar
    25    20    21   ar
    26     4     5    1
    27     5     6    1
    28     6     1    1
    29    21    12    1
    30    21    15   ar
    31    23    24    1
    32     7    10    1
@<TRIPOS>MOLECULE
*****
 30 32 0 0 0
SMALL
GASTEIGER

@<TRIPOS>ATOM
      1 C          63.1304   84.3912   14.7628 C.3     1  UNL1        0.0175
      2 C          63.3203   85.1084   13.4592 C.3     1  UNL1        0.0031
      3 C          63.7952   86.5313   13.4481 C.3     1  UNL1        0.0196
      4 C          64.0800   87.2369   14.7408 C.3     1  UNL1        0.0716
      5 C          63.8901   86.5198   16.0444 C.3     1  UNL1        0.0196
      6 C          63.4153   85.0970   16.0555 C.3     1  UNL1        0.0031
      7 N          64.5549   88.6597   14.7296 N.am    1  UNL1       -0.3046
      8 C          63.6678   89.7504   15.2526 C.2     1  UNL1        0.2427
      9 O          62.3060   89.4183   15.7867 O.2     1  UNL1       -0.2732
     10 H          65.4486   88.8777   14.3791 H       1  UNL1        0.1494
     11 C          64.1426   91.1734   15.2415 C.3     1  UNL1        0.1770
     12 N          65.4714   91.5159   14.6358 N.pl3   1  UNL1       -0.2997
     13 C          66.7906   91.5214   15.3496 C.3     1  UNL1        0.0959
     14 C          67.8488   91.9220   14.3649 C.3     1  UNL1        0.0490
     15 C          67.1836   92.1641   13.0424 C.ar    1  UNL1       -0.0063
     16 C          67.7259   92.5807   11.7074 C.ar    1  UNL1        0.0084
     17 C          66.7990   92.7462   10.5398 C.ar    1  UNL1        0.0574
     18 CL         67.3413   93.1628    9.2047 Cl      1  UNL1       -0.0823
     19 C          65.3296   92.4952   10.7073 C.ar    1  UNL1        0.0126
     20 C          64.7872   92.0787   12.0423 C.ar    1  UNL1        0.0151
     21 C          65.7142   91.9131   13.2099 C.ar    1  UNL1        0.0442
     22 C          62.6556   82.9684   14.7740 C.3     1  UNL1        0.0910
     23 N          63.4530   81.9063   14.0768 N.3     1  UNL1       -0.1834
     24 H          64.4222   82.0245   14.3718 H       1  UNL1        0.1484
     25 S          63.4617   81.8371   12.5785 S.O2    1  UNL1        0.0390
     26 O          64.9400   82.0914   12.5754 O.2     1  UNL1       -0.1576
     27 O          61.9835   81.5829   12.5814 O.2     1  UNL1       -0.1576
     28 C          63.0066   80.5228   10.3841 C.3     1  UNL1        0.0270
     29 C          63.4705   81.7680   11.0801 C.3     1  UNL1        0.1457
     30 C          63.9432   82.9438   10.2777 C.3     1  UNL1        0.0270
@<TRIPOS>BOND
     1    28    29    1
     2    29    30    1
     3    29    25    1
     4    25    26    2
     5    25    27    2
     6    25    23    1
     7    23    22    1
     8     1    22    1
     9     1     2    1
    10     2     3    1
    11     3     4    1
    12     4     7    1
    13     7     8   am
    14     8     9    2
    15     8    11    1
    16    11    12    1
    17    12    13    1
    18    13    14    1
    19    14    15    1
    20    15    16   ar
    21    16    17   ar
    22    17    18    1
    23    17    19   ar
    24    19    20   ar
    25    20    21   ar
    26     4     5    1
    27     5     6    1
    28     6     1    1
    29    21    12    1
    30    21    15   ar
    31    23    24    1
    32     7    10    1
@<TRIPOS>MOLECULE
*****
 30 32 0 0 0
SMALL
GASTEIGER

@<TRIPOS>ATOM
      1 C          65.2392   92.6934   12.2439 C.3     1  UNL1        0.0175
      2 C          64.7408   92.5861   10.8332 C.3     1  UNL1        0.0031
      3 C          63.8573   91.4411   10.4349 C.3     1  UNL1        0.0196
      4 C          63.4723   90.4034   11.4473 C.3     1  UNL1        0.0716
      5 C          63.9707   90.5107   12.8580 C.3     1  UNL1        0.0196
      6 C          64.8541   91.6556   13.2563 C.3     1  UNL1        0.0031
      7 N          62.5888   89.2585   11.0489 N.am    1  UNL1       -0.3046
      8 C          61.1002   89.3750   11.1918 C.2     1  UNL1        0.2427
      9 O          60.4951   90.6363   11.7330 O.2     1  UNL1       -0.2732
     10 H          62.9860   88.4307   10.6937 H       1  UNL1        0.1494
     11 C          60.2166   88.2301   10.7935 C.3     1  UNL1        0.1770
     12 N          60.7396   87.1618    9.8794 N.pl3   1  UNL1       -0.2997
     13 C          60.3906   86.9927    8.4305 C.3     1  UNL1        0.0959
     14 C          61.1387   85.8015    7.9095 C.3     1  UNL1        0.0490
     15 C          61.9502   85.2345    9.0365 C.ar    1  UNL1       -0.0063
     16 C          62.8818   84.0613    9.1114 C.ar    1  UNL1        0.0084
     17 C          63.5667   83.7288   10.4038 C.ar    1  UNL1        0.0574
     18 CL         64.4983   82.5555   10.4787 Cl      1  UNL1       -0.0823
     19 C          63.3200   84.5695   11.6213 C.ar    1  UNL1        0.0126
     20 C          62.3884   85.7428   11.5464 C.ar    1  UNL1        0.0151
     21 C          61.7035   86.0753   10.2540 C.ar    1  UNL1        0.0442
     22 C          66.1226   93.8383   12.6422 C.3     1  UNL1        0.0910
     23 N          65.9594   95.1759   11.9834 N.3     1  UNL1       -0.1834
     24 H          64.9647   95.3996   12.0135 H       1  UNL1        0.1484
     25 S          66.4047   95.3725   10.5646 S.O2    1  UNL1        0.0390
     26 O          67.5205   94.3933   10.7791 O.2     1  UNL1       -0.1576
     27 O          65.2888   96.3517   10.3500 O.2     1  UNL1       -0.1576
     28 C          67.5978   94.4791    8.4366 C.3     1  UNL1        0.0270
     29 C          66.8499   95.5690    9.1457 C.3     1  UNL1        0.1457
     30 C          66.5473   96.8553    8.4360 C.3     1  UNL1        0.0270
@<TRIPOS>BOND
     1    28    29    1
     2    29    30    1
     3    29    25    1
     4    25    26    2
     5    25    27    2
     6    25    23    1
     7    23    22    1
     8     1    22    1
     9     1     2    1
    10     2     3    1
    11     3     4    1
    12     4     7    1
    13     7     8   am
    14     8     9    2
    15     8    11    1
    16    11    12    1
    17    12    13    1
    18    13    14    1
    19    14    15    1
    20    15    16   ar
    21    16    17   ar
    22    17    18    1
    23    17    19   ar
    24    19    20   ar
    25    20    21   ar
    26     4     5    1
    27     5     6    1
    28     6     1    1
    29    21    12    1
    30    21    15   ar
    31    23    24    1
    32     7    10    1
@<TRIPOS>MOLECULE
*****
 30 32 0 0 0
SMALL
GASTEIGER

@<TRIPOS>ATOM
      1 C          64.2792   90.9067   14.9981 C.3     1  UNL1        0.0175
      2 C          63.9636   91.4769   13.6470 C.3     1  UNL1        0.0031
      3 C          63.4972   90.5751   12.5427 C.3     1  UNL1        0.0196
      4 C          63.3463   89.1033   12.7895 C.3     1  UNL1        0.0716
      5 C          63.6619   88.5331   14.1405 C.3     1  UNL1        0.0196
      6 C          64.1284   89.4348   15.2447 C.3     1  UNL1        0.0031
      7 N          62.8799   88.2017   11.6852 N.am    1  UNL1       -0.3046
      8 C          61.4314   88.1801   11.2960 C.2     1  UNL1        0.2427
      9 O          60.4495   89.0600   12.0112 O.2     1  UNL1       -0.2732
     10 H          63.5244   87.6241   11.2158 H       1  UNL1        0.1494
     11 C          60.9649   87.2784   10.1917 C.3     1  UNL1        0.1770
     12 N          61.8493   86.1688    9.7052 N.pl3   1  UNL1       -0.2997
     13 C          62.2486   85.9196    8.2810 C.3     1  UNL1        0.0959
     14 C          63.1358   84.7104    8.2532 C.3     1  UNL1        0.0490
     15 C          63.2848   84.2123    9.6602 C.ar    1  UNL1       -0.0063
     16 C          64.0417   83.0545   10.2402 C.ar    1  UNL1        0.0084
     17 C          64.0036   82.7980   11.7176 C.ar    1  UNL1        0.0574
     18 CL         64.7605   81.6402   12.2976 Cl      1  UNL1       -0.0823
     19 C          63.2085   83.6994   12.6150 C.ar    1  UNL1        0.0126
     20 C          62.4515   84.8572   12.0350 C.ar    1  UNL1        0.0151
     21 C          62.4897   85.1137   10.5576 C.ar    1  UNL1        0.0442
     22 C          64.7457   91.8083   16.1023 C.3     1  UNL1        0.0910
     23 N          65.4934   93.0673   15.7772 N.3     1  UNL1       -0.1834
     24 H          65.0001   93.5110   15.0025 H       1  UNL1        0.1484
     25 S          66.9404   93.0010   15.3878 S.O2    1  UNL1        0.0390
     26 O          66.6331   93.7403   14.1194 O.2     1  UNL1       -0.1576
     27 O          67.2479   92.2616   16.6562 O.2     1  UNL1       -0.1576
     28 C          69.4023   93.7519   15.7417 C.3     1  UNL1        0.0270
     29 C          68.3875   92.9346   14.9985 C.3     1  UNL1        0.1457
     30 C          68.8198   92.0512   13.8661 C.3     1  UNL1        0.0270
@<TRIPOS>BOND
     1    28    29    1
     2    29    30    1
     3    29    25    1
     4    25    26    2
     5    25    27    2
     6    25    23    1
     7    23    22    1
     8     1    22    1
     9     1     2    1
    10     2     3    1
    11     3     4    1
    12     4     7    1
    13     7     8   am
    14     8     9    2
    15     8    11    1
    16    11    12    1
    17    12    13    1
    18    13    14    1
    19    14    15    1
    20    15    16   ar
    21    16    17   ar
    22    17    18    1
    23    17    19   ar
    24    19    20   ar
    25    20    21   ar
    26     4     5    1
    27     5     6    1
    28     6     1    1
    29    21    12    1
    30    21    15   ar
    31    23    24    1
    32     7    10    1
@<TRIPOS>MOLECULE
*****
 30 32 0 0 0
SMALL
GASTEIGER

@<TRIPOS>ATOM
      1 C          59.8191   88.1431    8.4190 C.3     1  UNL1        0.0175
      2 C          60.0543   88.6329    9.8172 C.3     1  UNL1        0.0031
      3 C          60.7332   87.7459   10.8184 C.3     1  UNL1        0.0196
      4 C          61.1770   86.3691   10.4214 C.3     1  UNL1        0.0716
      5 C          60.9418   85.8793    9.0233 C.3     1  UNL1        0.0196
      6 C          60.2629   86.7663    8.0221 C.3     1  UNL1        0.0031
      7 N          61.8559   85.4822   11.4226 N.am    1  UNL1       -0.3046
      8 C          62.8456   86.0624   12.3890 C.2     1  UNL1        0.2427
      9 O          63.1564   87.5294   12.3541 O.2     1  UNL1       -0.2732
     10 H          61.6519   84.5193   11.4455 H       1  UNL1        0.1494
     11 C          63.5246   85.1755   13.3903 C.3     1  UNL1        0.1770
     12 N          63.0607   83.7611   13.5756 N.pl3   1  UNL1       -0.2997
     13 C          62.4610   83.1863   14.8246 C.3     1  UNL1        0.0959
     14 C          62.1448   81.7432   14.5653 C.3     1  UNL1        0.0490
     15 C          62.5491   81.4259   13.1561 C.ar    1  UNL1       -0.0063
     16 C          62.4749   80.1626   12.3508 C.ar    1  UNL1        0.0084
     17 C          62.9669   80.1464   10.9339 C.ar    1  UNL1        0.0574
     18 CL         62.8927   78.8831   10.1286 Cl      1  UNL1       -0.0823
     19 C          63.5329   81.3936   10.3222 C.ar    1  UNL1        0.0126
     20 C          63.6071   82.6569   11.1275 C.ar    1  UNL1        0.0151
     21 C          63.1152   82.6731   12.5444 C.ar    1  UNL1        0.0442
     22 C          59.1403   89.0300    7.4178 C.3     1  UNL1        0.0910
     23 N          59.9578   89.8142    6.4346 N.3     1  UNL1       -0.1834
     24 H          60.6421   90.3426    6.9759 H       1  UNL1        0.1484
     25 S          59.2889   90.7897    5.5122 S.O2    1  UNL1        0.0390
     26 O          60.6278   91.1985    4.9735 O.2     1  UNL1       -0.1576
     27 O          57.9499   90.3809    6.0507 O.2     1  UNL1       -0.1576
     28 C          57.1260   91.9008    4.5971 C.3     1  UNL1        0.0270
     29 C          58.6199   91.7651    4.5897 C.3     1  UNL1        0.1457
     30 C          59.4446   92.6048    3.6599 C.3     1  UNL1        0.0270
@<TRIPOS>BOND
     1    28    29    1
     2    29    30    1
     3    29    25    1
     4    25    26    2
     5    25    27    2
     6    25    23    1
     7    23    22    1
     8     1    22    1
     9     1     2    1
    10     2     3    1
    11     3     4    1
    12     4     7    1
    13     7     8   am
    14     8     9    2
    15     8    11    1
    16    11    12    1
    17    12    13    1
    18    13    14    1
    19    14    15    1
    20    15    16   ar
    21    16    17   ar
    22    17    18    1
    23    17    19   ar
    24    19    20   ar
    25    20    21   ar
    26     4     5    1
    27     5     6    1
    28     6     1    1
    29    21    12    1
    30    21    15   ar
    31    23    24    1
    32     7    10    1
@<TRIPOS>MOLECULE
*****
 30 32 0 0 0
SMALL
GASTEIGER

@<TRIPOS>ATOM
      1 C          65.5262   92.8353   12.2208 C.3     1  UNL1        0.0175
      2 C          65.1423   91.8950   13.3246 C.3     1  UNL1        0.0031
      3 C          64.2036   90.7579   13.0487 C.3     1  UNL1        0.0196
      4 C          63.6488   90.5612   11.6690 C.3     1  UNL1        0.0716
      5 C          64.0327   91.5015   10.5652 C.3     1  UNL1        0.0196
      6 C          64.9713   92.6385   10.8411 C.3     1  UNL1        0.0031
      7 N          62.7102   89.4242   11.3933 N.am    1  UNL1       -0.3046
      8 C          62.8173   88.1544   12.1847 C.2     1  UNL1        0.2427
      9 O          63.8631   88.0218   13.2518 O.2     1  UNL1       -0.2732
     10 H          62.0238   89.5112   10.6929 H       1  UNL1        0.1494
     11 C          61.8786   87.0173   11.9089 C.3     1  UNL1        0.1770
     12 N          61.1508   86.9463   10.5993 N.pl3   1  UNL1       -0.2997
     13 C          59.8605   87.6364   10.2692 C.3     1  UNL1        0.0959
     14 C          59.4977   87.2894    8.8557 C.3     1  UNL1        0.0490
     15 C          60.5637   86.3849    8.3122 C.ar    1  UNL1       -0.0063
     16 C          60.7361   85.7270    6.9753 C.ar    1  UNL1        0.0084
     17 C          61.9302   84.8570    6.7160 C.ar    1  UNL1        0.0574
     18 CL         62.1027   84.1990    5.3791 Cl      1  UNL1       -0.0823
     19 C          62.9519   84.6450    7.7936 C.ar    1  UNL1        0.0126
     20 C          62.7795   85.3029    9.1305 C.ar    1  UNL1        0.0151
     21 C          61.5854   86.1729    9.3898 C.ar    1  UNL1        0.0442
     22 C          66.4648   93.9723   12.4965 C.3     1  UNL1        0.0910
     23 N          66.0603   95.3771   12.1605 N.3     1  UNL1       -0.1834
     24 H          65.0919   95.4848   12.4621 H       1  UNL1        0.1484
     25 S          66.1277   95.8578   10.7412 S.O2    1  UNL1        0.0390
     26 O          64.9918   96.8008   11.0066 O.2     1  UNL1       -0.1576
     27 O          67.2636   94.9148   10.4757 O.2     1  UNL1       -0.1576
     28 C          64.9587   96.8500    8.6438 C.3     1  UNL1        0.0270
     29 C          66.1951   96.3385    9.3219 C.3     1  UNL1        0.1457
     30 C          67.4987   96.3076    8.5807 C.3     1  UNL1        0.0270
@<TRIPOS>BOND
     1    28    29    1
     2    29    30    1
     3    29    25    1
     4    25    26    2
     5    25    27    2
     6    25    23    1
     7    23    22    1
     8     1    22    1
     9     1     2    1
    10     2     3    1
    11     3     4    1
    12     4     7    1
    13     7     8   am
    14     8     9    2
    15     8    11    1
    16    11    12    1
    17    12    13    1
    18    13    14    1
    19    14    15    1
    20    15    16   ar
    21    16    17   ar
    22    17    18    1
    23    17    19   ar
    24    19    20   ar
    25    20    21   ar
    26     4     5    1
    27     5     6    1
    28     6     1    1
    29    21    12    1
    30    21    15   ar
    31    23    24    1
    32     7    10    1
@<TRIPOS>MOLECULE
*****
 30 32 0 0 0
SMALL
GASTEIGER

@<TRIPOS>ATOM
      1 C          64.9499   92.6175   11.8201 C.3     1  UNL1        0.0175
      2 C          64.5342   91.6568   12.8944 C.3     1  UNL1        0.0031
      3 C          63.6940   90.4631   12.5491 C.3     1  UNL1        0.0196
      4 C          63.2694   90.2302   11.1294 C.3     1  UNL1        0.0716
      5 C          63.6850   91.1909   10.0551 C.3     1  UNL1        0.0196
      6 C          64.5253   92.3845   10.4004 C.3     1  UNL1        0.0031
      7 N          62.4292   89.0366   10.7842 N.am    1  UNL1       -0.3046
      8 C          62.5594   87.7722   11.5806 C.2     1  UNL1        0.2427
      9 O          63.5298   87.7014   12.7222 O.2     1  UNL1       -0.2732
     10 H          61.7922   89.0831   10.0349 H       1  UNL1        0.1494
     11 C          61.7191   86.5784   11.2354 C.3     1  UNL1        0.1770
     12 N          62.3741   85.2675   10.9152 N.pl3   1  UNL1       -0.2997
     13 C          62.8976   84.8479    9.5736 C.3     1  UNL1        0.0959
     14 C          63.4676   83.4671    9.7097 C.3     1  UNL1        0.0490
     15 C          63.2965   83.0334   11.1354 C.ar    1  UNL1       -0.0063
     16 C          63.6686   81.7690   11.8514 C.ar    1  UNL1        0.0084
     17 C          63.3650   81.6173   13.3125 C.ar    1  UNL1        0.0574
     18 CL         63.7372   80.3529   14.0286 Cl      1  UNL1       -0.0823
     19 C          62.6892   82.7301   14.0575 C.ar    1  UNL1        0.0126
     20 C          62.3170   83.9944   13.3415 C.ar    1  UNL1        0.0151
     21 C          62.6206   84.1461   11.8804 C.ar    1  UNL1        0.0442
     22 C          65.7901   93.8111   12.1653 C.3     1  UNL1        0.0910
     23 N          67.1643   93.6212   12.7359 N.3     1  UNL1       -0.1834
     24 H          67.6367   92.9374   12.1445 H       1  UNL1        0.1484
     25 S          67.3307   93.1568   14.1525 S.O2    1  UNL1        0.0390
     26 O          68.4103   92.2115   13.7159 O.2     1  UNL1       -0.1576
     27 O          66.2510   94.1021   14.5892 O.2     1  UNL1       -0.1576
     28 C          68.8656   92.3899   16.1033 C.3     1  UNL1        0.0270
     29 C          67.4970   92.6925   15.5691 C.3     1  UNL1        0.1457
     30 C          66.2949   92.5308   16.4515 C.3     1  UNL1        0.0270
@<TRIPOS>BOND
     1    28    29    1
     2    29    30    1
     3    29    25    1
     4    25    26    2
     5    25    27    2
     6    25    23    1
     7    23    22    1
     8     1    22    1
     9     1     2    1
    10     2     3    1
    11     3     4    1
    12     4     7    1
    13     7     8   am
    14     8     9    2
    15     8    11    1
    16    11    12    1
    17    12    13    1
    18    13    14    1
    19    14    15    1
    20    15    16   ar
    21    16    17   ar
    22    17    18    1
    23    17    19   ar
    24    19    20   ar
    25    20    21   ar
    26     4     5    1
    27     5     6    1
    28     6     1    1
    29    21    12    1
    30    21    15   ar
    31    23    24    1
    32     7    10    1
@<TRIPOS>MOLECULE
*****
 30 32 0 0 0
SMALL
GASTEIGER

@<TRIPOS>ATOM
      1 C          64.9783   92.6288   11.7234 C.3     1  UNL1        0.0175
      2 C          64.5166   91.7553   12.8521 C.3     1  UNL1        0.0031
      3 C          63.4888   90.6910   12.6048 C.3     1  UNL1        0.0196
      4 C          62.9227   90.5003   11.2289 C.3     1  UNL1        0.0716
      5 C          63.3844   91.3737   10.1002 C.3     1  UNL1        0.0196
      6 C          64.4122   92.4379   10.3474 C.3     1  UNL1        0.0031
      7 N          61.8950   89.4360   10.9817 N.am    1  UNL1       -0.3046
      8 C          62.0612   88.0765   11.5932 C.2     1  UNL1        0.2427
      9 O          63.2552   87.7812   12.4519 O.2     1  UNL1       -0.2732
     10 H          61.1113   89.6298   10.4182 H       1  UNL1        0.1494
     11 C          61.0335   87.0121   11.3461 C.3     1  UNL1        0.1770
     12 N          60.4940   86.7971    9.9631 N.pl3   1  UNL1       -0.2997
     13 C          59.1816   87.3013    9.4404 C.3     1  UNL1        0.0959
     14 C          59.0488   86.8560    8.0142 C.3     1  UNL1        0.0490
     15 C          60.2791   86.0766    7.6554 C.ar    1  UNL1       -0.0063
     16 C          60.7015   85.3953    6.3876 C.ar    1  UNL1        0.0084
     17 C          62.0171   84.6776    6.3243 C.ar    1  UNL1        0.0574
     18 CL         62.4396   83.9963    5.0564 Cl      1  UNL1       -0.0823
     19 C          62.9103   84.6412    7.5288 C.ar    1  UNL1        0.0126
     20 C          62.4880   85.3225    8.7966 C.ar    1  UNL1        0.0151
     21 C          61.1724   86.0402    8.8599 C.ar    1  UNL1        0.0442
     22 C          66.0060   93.6930   11.9705 C.3     1  UNL1        0.0910
     23 N          67.3236   93.3335   12.5908 N.3     1  UNL1       -0.1834
     24 H          67.6446   92.4830   12.1281 H       1  UNL1        0.1484
     25 S          67.4144   93.0839   14.0671 S.O2    1  UNL1        0.0390
     26 O          68.4434   92.0199   13.8239 O.2     1  UNL1       -0.1576
     27 O          66.3854   94.1478   14.3103 O.2     1  UNL1       -0.1576
     28 C          66.2622   92.5505   16.3338 C.3     1  UNL1        0.0270
     29 C          67.5051   92.8343   15.5434 C.3     1  UNL1        0.1457
     30 C          68.8386   92.8685   16.2293 C.3     1  UNL1        0.0270
@<TRIPOS>BOND
     1    28    29    1
     2    29    30    1
     3    29    25    1
     4    25    26    2
     5    25    27    2
     6    25    23    1
     7    23    22    1
     8     1    22    1
     9     1     2    1
    10     2     3    1
    11     3     4    1
    12     4     7    1
    13     7     8   am
    14     8     9    2
    15     8    11    1
    16    11    12    1
    17    12    13    1
    18    13    14    1
    19    14    15    1
    20    15    16   ar
    21    16    17   ar
    22    17    18    1
    23    17    19   ar
    24    19    20   ar
    25    20    21   ar
    26     4     5    1
    27     5     6    1
    28     6     1    1
    29    21    12    1
    30    21    15   ar
    31    23    24    1
    32     7    10    1
