@<TRIPOS>MOLECULE
*****
 31 33 0 0 0
SMALL
GASTEIGER

@<TRIPOS>ATOM
      1 N          62.5138   90.5438   10.6542 N.am    1  UNL1       -0.2623
      2 C          63.5697   91.5832   10.4204 C.3     1  UNL1        0.1226
      3 C          64.2655   91.8387   11.7245 C.ar    1  UNL1        0.0196
      4 C          63.6396   90.9572   12.7643 C.ar    1  UNL1        0.1319
      5 N          64.1363   90.9971   14.1791 N.ar    1  UNL1       -0.2456
      6 C          65.2590   91.9185   14.5541 C.ar    1  UNL1        0.0568
      7 C          65.7557   91.9584   15.9689 C.3     1  UNL1        0.0518
      8 C          65.8849   92.8000   13.5143 C.ar    1  UNL1        0.0068
      9 C          65.3881   92.7601   12.0995 C.ar    1  UNL1       -0.0015
     10 C          62.5570   90.1569   12.1028 C.2     1  UNL1        0.2671
     11 O          61.6728   89.1470   12.7724 O.2     1  UNL1       -0.2682
     12 C          66.0140   93.6416   11.0597 C.ar    1  UNL1        0.0102
     13 C          65.4328   94.9948   10.7751 C.ar    1  UNL1        0.0017
     14 C          66.0587   95.8763    9.7353 C.ar    1  UNL1        0.0114
     15 C          67.2658   95.4047    8.9802 C.ar    1  UNL1        0.0585
     16 CL         67.8918   96.2862    7.9404 Cl      1  UNL1       -0.0822
     17 C          67.8472   94.0515    9.2648 C.ar    1  UNL1        0.0228
     18 C          67.2213   93.1699   10.3046 C.ar    1  UNL1        0.0585
     19 CL         67.8025   91.8168   10.5892 Cl      1  UNL1       -0.0822
     20 C          67.0075   93.7215   13.8893 C.3     1  UNL1        0.0934
     21 N          68.3332   93.1573   14.3066 N.3     1  UNL1       -0.3174
     22 H          68.2260   92.6520   15.1862 H       1  UNL1        0.1192
     23 H          69.0023   93.9171   14.4304 H       1  UNL1        0.1192
     24 C          61.5788   89.9888    9.6209 C.3     1  UNL1        0.1798
     25 N          60.2928   87.9443    8.6638 N.am    1  UNL1       -0.2781
     26 C          61.4330   88.5045    9.4613 C.2     1  UNL1        0.2460
     27 O          62.4275   87.5803   10.0993 O.2     1  UNL1       -0.2730
     28 C          60.9389   85.7370    7.4552 C.3     1  UNL1        0.0233
     29 C          60.1471   86.4599    8.5042 C.3     1  UNL1        0.0935
     30 C          59.2984   88.8684    8.0258 C.3     1  UNL1        0.0935
     31 C          59.4648   89.2747    6.5915 C.3     1  UNL1        0.0233
@<TRIPOS>BOND
     1    28    29    1
     2    29    25    1
     3    25    30    1
     4    30    31    1
     5    25    26   am
     6    26    27    2
     7    26    24    1
     8    24     1    1
     9     1     2    1
    10     2     3    1
    11     3     4   ar
    12     4     5   ar
    13     5     6   ar
    14     6     7    1
    15     6     8   ar
    16     8    20    1
    17    20    21    1
    18     8     9   ar
    19     9    12    1
    20    12    13   ar
    21    13    14   ar
    22    14    15   ar
    23    15    16    1
    24    15    17   ar
    25    17    18   ar
    26    18    19    1
    27     4    10    1
    28    10    11    2
    29    10     1   am
    30     9     3   ar
    31    18    12   ar
    32    21    22    1
    33    21    23    1
@<TRIPOS>MOLECULE
*****
 31 33 0 0 0
SMALL
GASTEIGER

@<TRIPOS>ATOM
      1 N          63.3213   84.3906   14.1637 N.am    1  UNL1       -0.2623
      2 C          62.7171   84.9439   12.9072 C.3     1  UNL1        0.1226
      3 C          63.0105   86.4142   12.8602 C.ar    1  UNL1        0.0196
      4 C          63.7961   86.7695   14.0876 C.ar    1  UNL1        0.1319
      5 N          64.2350   88.1860   14.3131 N.ar    1  UNL1       -0.2456
      6 C          63.8883   89.2472   13.3112 C.ar    1  UNL1        0.0568
      7 C          64.3273   90.6637   13.5367 C.3     1  UNL1        0.0518
      8 C          63.1027   88.8918   12.0838 C.ar    1  UNL1        0.0068
      9 C          62.6638   87.4753   11.8583 C.ar    1  UNL1       -0.0015
     10 C          63.9882   85.5189   14.8932 C.2     1  UNL1        0.2671
     11 O          64.7189   85.4148   16.1990 O.2     1  UNL1       -0.2682
     12 C          61.8782   87.1199   10.6309 C.ar    1  UNL1        0.0102
     13 C          62.5375   86.3758    9.5078 C.ar    1  UNL1        0.0017
     14 C          61.7519   86.0204    8.2804 C.ar    1  UNL1        0.0114
     15 C          60.3069   86.4092    8.1761 C.ar    1  UNL1        0.0585
     16 CL         59.5213   86.0538    6.9487 Cl      1  UNL1       -0.0822
     17 C          59.6475   87.1533    9.2993 C.ar    1  UNL1        0.0228
     18 C          60.4331   87.5087   10.5267 C.ar    1  UNL1        0.0585
     19 CL         59.7738   88.2528   11.6499 Cl      1  UNL1       -0.0822
     20 C          62.7560   89.9529   11.0819 C.3     1  UNL1        0.0934
     21 N          61.6454   90.9198   11.3675 N.3     1  UNL1       -0.3174
     22 H          60.7577   90.4183   11.3990 H       1  UNL1        0.1192
     23 H          61.6113   91.6254   10.6317 H       1  UNL1        0.1192
     24 C          63.2681   82.9601   14.6119 C.3     1  UNL1        0.1798
     25 N          63.2257   81.4919   12.4689 N.am    1  UNL1       -0.2781
     26 C          62.5920   81.9305   13.7558 C.2     1  UNL1        0.2460
     27 O          61.2823   81.3396   14.1866 O.2     1  UNL1       -0.2730
     28 C          63.0651   80.1783   10.2331 C.3     1  UNL1        0.0233
     29 C          62.5495   80.4623   11.6128 C.3     1  UNL1        0.0935
     30 C          64.5353   82.0828   12.0381 C.3     1  UNL1        0.0935
     31 C          64.5818   83.0460   10.8892 C.3     1  UNL1        0.0233
@<TRIPOS>BOND
     1    28    29    1
     2    29    25    1
     3    25    30    1
     4    30    31    1
     5    25    26   am
     6    26    27    2
     7    26    24    1
     8    24     1    1
     9     1     2    1
    10     2     3    1
    11     3     4   ar
    12     4     5   ar
    13     5     6   ar
    14     6     7    1
    15     6     8   ar
    16     8    20    1
    17    20    21    1
    18     8     9   ar
    19     9    12    1
    20    12    13   ar
    21    13    14   ar
    22    14    15   ar
    23    15    16    1
    24    15    17   ar
    25    17    18   ar
    26    18    19    1
    27     4    10    1
    28    10    11    2
    29    10     1   am
    30     9     3   ar
    31    18    12   ar
    32    21    22    1
    33    21    23    1
@<TRIPOS>MOLECULE
*****
 31 33 0 0 0
SMALL
GASTEIGER

@<TRIPOS>ATOM
      1 N          63.6278   89.9039   12.8104 N.am    1  UNL1       -0.2623
      2 C          63.1625   88.8724   11.8258 C.3     1  UNL1        0.1226
      3 C          63.2615   87.5272   12.4820 C.ar    1  UNL1        0.0196
      4 C          63.7881   87.7273   13.8722 C.ar    1  UNL1        0.1319
      5 N          63.9934   86.5462   14.7737 N.ar    1  UNL1       -0.2456
      6 C          63.6722   85.1648   14.2850 C.ar    1  UNL1        0.0568
      7 C          63.8775   83.9837   15.1865 C.3     1  UNL1        0.0518
      8 C          63.1456   84.9647   12.8948 C.ar    1  UNL1        0.0068
      9 C          62.9403   86.1459   11.9933 C.ar    1  UNL1       -0.0015
     10 C          64.0144   89.1962   14.0752 C.2     1  UNL1        0.2671
     11 O          64.5359   89.8437   15.3237 O.2     1  UNL1       -0.2682
     12 C          62.4138   85.9458   10.6031 C.ar    1  UNL1        0.0102
     13 C          63.2183   85.1730    9.6004 C.ar    1  UNL1        0.0017
     14 C          62.6918   84.9729    8.2102 C.ar    1  UNL1        0.0114
     15 C          61.3607   85.5455    7.8227 C.ar    1  UNL1        0.0585
     16 CL         60.8341   85.3454    6.4325 Cl      1  UNL1       -0.0822
     17 C          60.5560   86.3183    8.8254 C.ar    1  UNL1        0.0228
     18 C          61.0826   86.5184   10.2156 C.ar    1  UNL1        0.0585
     19 CL         60.2780   87.2912   11.2183 Cl      1  UNL1       -0.0822
     20 C          62.8244   83.5834   12.4061 C.3     1  UNL1        0.0934
     21 N          63.9296   82.6615   11.9837 N.3     1  UNL1       -0.3174
     22 H          64.3849   83.0355   11.1512 H       1  UNL1        0.1192
     23 H          63.5433   81.7407   11.7753 H       1  UNL1        0.1192
     24 C          63.6947   91.3833   12.5721 C.3     1  UNL1        0.1798
     25 N          65.8378   92.6025   11.7531 N.am    1  UNL1       -0.2781
     26 C          64.5333   91.9255   11.4529 C.2     1  UNL1        0.2460
     27 O          64.0676   91.7908   10.0333 O.2     1  UNL1       -0.2730
     28 C          67.7348   92.2869   10.0062 C.3     1  UNL1        0.0233
     29 C          66.6765   93.1447   10.6338 C.3     1  UNL1        0.0935
     30 C          66.3036   92.7373   13.1725 C.3     1  UNL1        0.0935
     31 C          67.4064   91.8601   13.6865 C.3     1  UNL1        0.0233
@<TRIPOS>BOND
     1    28    29    1
     2    29    25    1
     3    25    30    1
     4    30    31    1
     5    25    26   am
     6    26    27    2
     7    26    24    1
     8    24     1    1
     9     1     2    1
    10     2     3    1
    11     3     4   ar
    12     4     5   ar
    13     5     6   ar
    14     6     7    1
    15     6     8   ar
    16     8    20    1
    17    20    21    1
    18     8     9   ar
    19     9    12    1
    20    12    13   ar
    21    13    14   ar
    22    14    15   ar
    23    15    16    1
    24    15    17   ar
    25    17    18   ar
    26    18    19    1
    27     4    10    1
    28    10    11    2
    29    10     1   am
    30     9     3   ar
    31    18    12   ar
    32    21    22    1
    33    21    23    1
@<TRIPOS>MOLECULE
*****
 31 33 0 0 0
SMALL
GASTEIGER

@<TRIPOS>ATOM
      1 N          63.8184   84.8487   13.3568 N.am    1  UNL1       -0.2623
      2 C          63.2778   84.9913   11.9649 C.3     1  UNL1        0.1226
      3 C          62.9867   86.4435   11.7273 C.ar    1  UNL1        0.0196
      4 C          63.3473   87.1983   12.9723 C.ar    1  UNL1        0.1319
      5 N          63.1611   88.6857   13.0281 N.ar    1  UNL1       -0.2456
      6 C          62.6141   89.4182   11.8388 C.ar    1  UNL1        0.0568
      7 C          62.4279   90.9055   11.8946 C.3     1  UNL1        0.0518
      8 C          62.2535   88.6633   10.5938 C.ar    1  UNL1        0.0068
      9 C          62.4398   87.1759   10.5380 C.ar    1  UNL1       -0.0015
     10 C          63.8614   86.2127   13.9794 C.2     1  UNL1        0.2671
     11 O          64.3352   86.5346   15.3657 O.2     1  UNL1       -0.2682
     12 C          62.0791   86.4211    9.2930 C.ar    1  UNL1        0.0102
     13 C          63.1462   85.7215    8.5044 C.ar    1  UNL1        0.0017
     14 C          62.7856   84.9666    7.2594 C.ar    1  UNL1        0.0114
     15 C          61.3578   84.9114    6.8029 C.ar    1  UNL1        0.0585
     16 CL         60.9972   84.1565    5.5578 Cl      1  UNL1       -0.0822
     17 C          60.2906   85.6110    7.5914 C.ar    1  UNL1        0.0228
     18 C          60.6513   86.3659    8.8365 C.ar    1  UNL1        0.0585
     19 CL         59.5842   87.0655    9.6250 Cl      1  UNL1       -0.0822
     20 C          61.7066   89.3958    9.4045 C.3     1  UNL1        0.0934
     21 N          60.4167   90.1529    9.5181 N.3     1  UNL1       -0.3174
     22 H          59.6517   89.4986    9.6822 H       1  UNL1        0.1192
     23 H          60.2460   90.6655    8.6529 H       1  UNL1        0.1192
     24 C          64.2417   83.5671   14.0112 C.3     1  UNL1        0.1798
     25 N          62.9374   81.3588   13.5964 N.am    1  UNL1       -0.2781
     26 C          63.2090   82.5679   14.4415 C.2     1  UNL1        0.2460
     27 O          62.4480   82.7778   15.7170 O.2     1  UNL1       -0.2730
     28 C          60.4564   80.7481   14.0674 C.3     1  UNL1        0.0233
     29 C          61.9046   80.3596   14.0268 C.3     1  UNL1        0.0935
     30 C          63.6984   81.1488   12.3210 C.3     1  UNL1        0.0935
     31 C          63.1101   81.5933   11.0147 C.3     1  UNL1        0.0233
@<TRIPOS>BOND
     1    28    29    1
     2    29    25    1
     3    25    30    1
     4    30    31    1
     5    25    26   am
     6    26    27    2
     7    26    24    1
     8    24     1    1
     9     1     2    1
    10     2     3    1
    11     3     4   ar
    12     4     5   ar
    13     5     6   ar
    14     6     7    1
    15     6     8   ar
    16     8    20    1
    17    20    21    1
    18     8     9   ar
    19     9    12    1
    20    12    13   ar
    21    13    14   ar
    22    14    15   ar
    23    15    16    1
    24    15    17   ar
    25    17    18   ar
    26    18    19    1
    27     4    10    1
    28    10    11    2
    29    10     1   am
    30     9     3   ar
    31    18    12   ar
    32    21    22    1
    33    21    23    1
@<TRIPOS>MOLECULE
*****
 31 33 0 0 0
SMALL
GASTEIGER

@<TRIPOS>ATOM
      1 N          62.4941   86.6191   10.0736 N.am    1  UNL1       -0.2623
      2 C          62.5854   86.3414   11.5448 C.3     1  UNL1        0.1226
      3 C          62.7904   84.8666   11.7264 C.ar    1  UNL1        0.0196
      4 C          62.8258   84.2328   10.3673 C.ar    1  UNL1        0.1319
      5 N          63.0203   82.7514   10.2354 N.ar    1  UNL1       -0.2456
      6 C          63.1793   81.9036   11.4627 C.ar    1  UNL1        0.0568
      7 C          63.3737   80.4222   11.3308 C.3     1  UNL1        0.0518
      8 C          63.1439   82.5374   12.8217 C.ar    1  UNL1        0.0068
      9 C          62.9494   84.0189   12.9536 C.ar    1  UNL1       -0.0015
     10 C          62.6427   85.3160    9.3459 C.2     1  UNL1        0.2671
     11 O          62.6134   85.1288    7.8579 O.2     1  UNL1       -0.2682
     12 C          62.9140   84.6527   14.3126 C.ar    1  UNL1        0.0102
     13 C          61.6138   84.7715   15.0511 C.ar    1  UNL1        0.0017
     14 C          61.5784   85.4053   16.4102 C.ar    1  UNL1        0.0114
     15 C          62.8431   85.9202   17.0308 C.ar    1  UNL1        0.0585
     16 CL         62.8077   86.5539   18.3899 Cl      1  UNL1       -0.0822
     17 C          64.1434   85.8014   16.2923 C.ar    1  UNL1        0.0228
     18 C          64.1788   85.1676   14.9333 C.ar    1  UNL1        0.0585
     19 CL         65.4790   85.0488   14.1948 Cl      1  UNL1       -0.0822
     20 C          63.3029   81.6897   14.0489 C.3     1  UNL1        0.0934
     21 N          62.0935   81.1167   14.7265 N.3     1  UNL1       -0.3174
     22 H          61.5301   81.8737   15.1137 H       1  UNL1        0.1192
     23 H          62.3882   80.4934   15.4782 H       1  UNL1        0.1192
     24 C          62.2900   87.9639    9.4412 C.3     1  UNL1        0.1798
     25 N          61.1222   89.9383   10.6610 N.am    1  UNL1       -0.2781
     26 C          61.0514   88.7543    9.7428 C.2     1  UNL1        0.2460
     27 O          59.7418   88.3608    9.1260 O.2     1  UNL1       -0.2730
     28 C          58.9248   90.2493   12.0118 C.3     1  UNL1        0.0233
     29 C          59.8835   90.7287   10.9626 C.3     1  UNL1        0.0935
     30 C          62.4317   90.3318   11.2778 C.3     1  UNL1        0.0935
     31 C          63.3590   91.2548   10.5441 C.3     1  UNL1        0.0233
@<TRIPOS>BOND
     1    28    29    1
     2    29    25    1
     3    25    30    1
     4    30    31    1
     5    25    26   am
     6    26    27    2
     7    26    24    1
     8    24     1    1
     9     1     2    1
    10     2     3    1
    11     3     4   ar
    12     4     5   ar
    13     5     6   ar
    14     6     7    1
    15     6     8   ar
    16     8    20    1
    17    20    21    1
    18     8     9   ar
    19     9    12    1
    20    12    13   ar
    21    13    14   ar
    22    14    15   ar
    23    15    16    1
    24    15    17   ar
    25    17    18   ar
    26    18    19    1
    27     4    10    1
    28    10    11    2
    29    10     1   am
    30     9     3   ar
    31    18    12   ar
    32    21    22    1
    33    21    23    1
@<TRIPOS>MOLECULE
*****
 31 33 0 0 0
SMALL
GASTEIGER

@<TRIPOS>ATOM
      1 N          63.7360   84.5709   12.4257 N.am    1  UNL1       -0.2623
      2 C          62.8344   85.7214   12.0888 C.3     1  UNL1        0.1226
      3 C          62.4826   85.6241   10.6339 C.ar    1  UNL1        0.0196
      4 C          63.1668   84.4134   10.0716 C.ar    1  UNL1        0.1319
      5 N          62.9960   84.0601    8.6239 N.ar    1  UNL1       -0.2456
      6 C          62.1410   84.9174    7.7384 C.ar    1  UNL1        0.0568
      7 C          61.9703   84.5641    6.2906 C.3     1  UNL1        0.0518
      8 C          61.4568   86.1281    8.3007 C.ar    1  UNL1        0.0068
      9 C          61.6276   86.4814    9.7485 C.ar    1  UNL1       -0.0015
     10 C          63.9415   83.7626   11.1790 C.2     1  UNL1        0.2671
     11 O          64.7752   82.5212   11.0604 O.2     1  UNL1       -0.2682
     12 C          60.9434   87.6920   10.3108 C.ar    1  UNL1        0.0102
     13 C          59.5772   87.5675   10.9172 C.ar    1  UNL1        0.0017
     14 C          58.8930   88.7781   11.4795 C.ar    1  UNL1        0.0114
     15 C          59.5750   90.1133   11.4355 C.ar    1  UNL1        0.0585
     16 CL         58.8908   91.3240   11.9978 Cl      1  UNL1       -0.0822
     17 C          60.9414   90.2379   10.8291 C.ar    1  UNL1        0.0228
     18 C          61.6256   89.0273   10.2667 C.ar    1  UNL1        0.0585
     19 CL         62.9918   89.1518    9.6603 Cl      1  UNL1       -0.0822
     20 C          60.6019   86.9854    7.4153 C.3     1  UNL1        0.0934
     21 N          59.1289   86.7215    7.3115 N.3     1  UNL1       -0.3174
     22 H          58.9763   85.8147    6.8701 H       1  UNL1        0.1192
     23 H          58.6915   87.4514    6.7491 H       1  UNL1        0.1192
     24 C          64.3283   84.2799   13.7728 C.3     1  UNL1        0.1798
     25 N          63.7565   85.9026   15.7195 N.am    1  UNL1       -0.2781
     26 C          63.5515   84.5932   15.0171 C.2     1  UNL1        0.2460
     27 O          62.5696   83.5970   15.5591 O.2     1  UNL1       -0.2730
     28 C          62.8719   87.6329   17.4440 C.3     1  UNL1        0.0233
     29 C          62.9796   86.2159   16.9639 C.3     1  UNL1        0.0935
     30 C          64.7382   86.8988   15.1776 C.3     1  UNL1        0.0935
     31 C          64.2525   88.0747   14.3831 C.3     1  UNL1        0.0233
@<TRIPOS>BOND
     1    28    29    1
     2    29    25    1
     3    25    30    1
     4    30    31    1
     5    25    26   am
     6    26    27    2
     7    26    24    1
     8    24     1    1
     9     1     2    1
    10     2     3    1
    11     3     4   ar
    12     4     5   ar
    13     5     6   ar
    14     6     7    1
    15     6     8   ar
    16     8    20    1
    17    20    21    1
    18     8     9   ar
    19     9    12    1
    20    12    13   ar
    21    13    14   ar
    22    14    15   ar
    23    15    16    1
    24    15    17   ar
    25    17    18   ar
    26    18    19    1
    27     4    10    1
    28    10    11    2
    29    10     1   am
    30     9     3   ar
    31    18    12   ar
    32    21    22    1
    33    21    23    1
@<TRIPOS>MOLECULE
*****
 31 33 0 0 0
SMALL
GASTEIGER

@<TRIPOS>ATOM
      1 N          61.0243   87.5033   10.0582 N.am    1  UNL1       -0.2623
      2 C          61.4394   86.2354   10.7439 C.3     1  UNL1        0.1226
      3 C          62.3695   86.5972   11.8638 C.ar    1  UNL1        0.0196
      4 C          62.5292   88.0886   11.8702 C.ar    1  UNL1        0.1319
      5 N          63.4110   88.7441   12.8914 N.ar    1  UNL1       -0.2456
      6 C          64.1331   87.9081   13.9061 C.ar    1  UNL1        0.0568
      7 C          65.0149   88.5636   14.9273 C.3     1  UNL1        0.0518
      8 C          63.9734   86.4166   13.8997 C.ar    1  UNL1        0.0068
      9 C          63.0916   85.7612   12.8785 C.ar    1  UNL1       -0.0015
     10 C          61.6978   88.6486   10.7543 C.2     1  UNL1        0.2671
     11 O          61.5636   90.0993   10.3972 O.2     1  UNL1       -0.2682
     12 C          62.9318   84.2697   12.8721 C.ar    1  UNL1        0.0102
     13 C          63.4535   83.4645   11.7190 C.ar    1  UNL1        0.0017
     14 C          63.2938   81.9731   11.7126 C.ar    1  UNL1        0.0114
     15 C          62.6124   81.2868   12.8592 C.ar    1  UNL1        0.0585
     16 CL         62.4527   79.7953   12.8528 Cl      1  UNL1       -0.0822
     17 C          62.0907   82.0920   14.0123 C.ar    1  UNL1        0.0228
     18 C          62.2504   83.5834   14.0187 C.ar    1  UNL1        0.0585
     19 CL         61.7288   84.3886   15.1718 Cl      1  UNL1       -0.0822
     20 C          64.6955   85.5806   14.9144 C.3     1  UNL1        0.0934
     21 N          65.9437   84.8441   14.5279 N.3     1  UNL1       -0.3174
     22 H          65.7148   84.1227   13.8441 H       1  UNL1        0.1192
     23 H          66.3527   84.4104   15.3556 H       1  UNL1        0.1192
     24 C          60.0983   87.6075    8.8828 C.3     1  UNL1        0.1798
     25 N          61.1453   85.6365    7.5527 N.am    1  UNL1       -0.2781
     26 C          59.9459   86.4485    7.9429 C.2     1  UNL1        0.2460
     27 O          58.5941   86.1013    7.3932 O.2     1  UNL1       -0.2730
     28 C          61.9251   84.3297    5.4470 C.3     1  UNL1        0.0233
     29 C          60.9929   84.4774    6.6128 C.3     1  UNL1        0.0935
     30 C          62.4971   85.9837    8.1024 C.3     1  UNL1        0.0935
     31 C          63.4399   84.8938    8.5188 C.3     1  UNL1        0.0233
@<TRIPOS>BOND
     1    28    29    1
     2    29    25    1
     3    25    30    1
     4    30    31    1
     5    25    26   am
     6    26    27    2
     7    26    24    1
     8    24     1    1
     9     1     2    1
    10     2     3    1
    11     3     4   ar
    12     4     5   ar
    13     5     6   ar
    14     6     7    1
    15     6     8   ar
    16     8    20    1
    17    20    21    1
    18     8     9   ar
    19     9    12    1
    20    12    13   ar
    21    13    14   ar
    22    14    15   ar
    23    15    16    1
    24    15    17   ar
    25    17    18   ar
    26    18    19    1
    27     4    10    1
    28    10    11    2
    29    10     1   am
    30     9     3   ar
    31    18    12   ar
    32    21    22    1
    33    21    23    1
@<TRIPOS>MOLECULE
*****
 31 33 0 0 0
SMALL
GASTEIGER

@<TRIPOS>ATOM
      1 N          63.5756   84.3497   13.4841 N.am    1  UNL1       -0.2623
      2 C          62.7708   85.0143   12.4069 C.3     1  UNL1        0.1226
      3 C          62.9784   86.4956   12.5202 C.ar    1  UNL1        0.0196
      4 C          63.9116   86.7464   13.6675 C.ar    1  UNL1        0.1319
      5 N          64.3046   88.1500   14.0216 N.ar    1  UNL1       -0.2456
      6 C          63.7645   89.3029   13.2284 C.ar    1  UNL1        0.0568
      7 C          64.1575   90.7064   13.5824 C.3     1  UNL1        0.0518
      8 C          62.8313   89.0521   12.0811 C.ar    1  UNL1        0.0068
      9 C          62.4382   87.6484   11.7270 C.ar    1  UNL1       -0.0015
     10 C          64.2807   85.4201   14.2632 C.2     1  UNL1        0.2671
     11 O          65.1944   85.2025   15.4327 O.2     1  UNL1       -0.2682
     12 C          61.5051   87.3976   10.5797 C.ar    1  UNL1        0.0102
     13 C          60.0987   87.9167   10.6296 C.ar    1  UNL1        0.0017
     14 C          59.1655   87.6659    9.4823 C.ar    1  UNL1        0.0114
     15 C          59.6387   86.8960    8.2851 C.ar    1  UNL1        0.0585
     16 CL         58.7055   86.6453    7.1378 Cl      1  UNL1       -0.0822
     17 C          61.0452   86.3769    8.2352 C.ar    1  UNL1        0.0228
     18 C          61.9783   86.6277    9.3825 C.ar    1  UNL1        0.0585
     19 CL         63.3847   86.1086    9.3326 Cl      1  UNL1       -0.0822
     20 C          62.2911   90.2049   11.2878 C.3     1  UNL1        0.0934
     21 N          63.0760   90.7543   10.1337 N.3     1  UNL1       -0.3174
     22 H          63.9393   91.1741   10.4788 H       1  UNL1        0.1192
     23 H          62.5222   91.4628    9.6525 H       1  UNL1        0.1192
     24 C          63.6606   82.8737   13.7376 C.3     1  UNL1        0.1798
     25 N          62.9106   80.6371   12.6489 N.am    1  UNL1       -0.2781
     26 C          63.6931   81.9152   12.5843 C.2     1  UNL1        0.2460
     27 O          64.5081   82.2348   11.3662 O.2     1  UNL1       -0.2730
     28 C          62.8237   80.1912   10.0909 C.3     1  UNL1        0.0233
     29 C          62.9432   79.6786   11.4955 C.3     1  UNL1        0.0935
     30 C          62.0957   80.3174   13.8669 C.3     1  UNL1        0.0935
     31 C          60.7272   80.9095   14.0303 C.3     1  UNL1        0.0233
@<TRIPOS>BOND
     1    28    29    1
     2    29    25    1
     3    25    30    1
     4    30    31    1
     5    25    26   am
     6    26    27    2
     7    26    24    1
     8    24     1    1
     9     1     2    1
    10     2     3    1
    11     3     4   ar
    12     4     5   ar
    13     5     6   ar
    14     6     7    1
    15     6     8   ar
    16     8    20    1
    17    20    21    1
    18     8     9   ar
    19     9    12    1
    20    12    13   ar
    21    13    14   ar
    22    14    15   ar
    23    15    16    1
    24    15    17   ar
    25    17    18   ar
    26    18    19    1
    27     4    10    1
    28    10    11    2
    29    10     1   am
    30     9     3   ar
    31    18    12   ar
    32    21    22    1
    33    21    23    1
@<TRIPOS>MOLECULE
*****
 31 33 0 0 0
SMALL
GASTEIGER

@<TRIPOS>ATOM
      1 N          58.8282   93.4328   -2.7626 N.am    1  UNL1       -0.2623
      2 C          60.2154   93.9588   -2.9841 C.3     1  UNL1        0.1226
      3 C          61.0180   93.6852   -1.7468 C.ar    1  UNL1        0.0196
      4 C          60.1269   92.9901   -0.7606 C.ar    1  UNL1        0.1319
      5 N          60.6629   92.5890    0.5817 N.ar    1  UNL1       -0.2456
      6 C          62.0901   92.8830    0.9378 C.ar    1  UNL1        0.0568
      7 C          62.6261   92.4819    2.2801 C.3     1  UNL1        0.0518
      8 C          62.9813   93.5781   -0.0485 C.ar    1  UNL1        0.0068
      9 C          62.4452   93.9792   -1.3908 C.ar    1  UNL1       -0.0015
     10 C          58.7736   92.8342   -1.3884 C.2     1  UNL1        0.2671
     11 O          57.5758   92.1922   -0.7533 O.2     1  UNL1       -0.2682
     12 C          63.3363   94.6744   -2.3771 C.ar    1  UNL1        0.0102
     13 C          63.5222   96.1609   -2.3021 C.ar    1  UNL1        0.0017
     14 C          64.4133   96.8560   -3.2884 C.ar    1  UNL1        0.0114
     15 C          65.1186   96.0646   -4.3496 C.ar    1  UNL1        0.0585
     16 CL         66.0097   96.7597   -5.3359 Cl      1  UNL1       -0.0822
     17 C          64.9327   94.5780   -4.4246 C.ar    1  UNL1        0.0228
     18 C          64.0416   93.8829   -3.4383 C.ar    1  UNL1        0.0585
     19 CL         63.8557   92.3963   -3.5133 Cl      1  UNL1       -0.0822
     20 C          64.4084   93.8722    0.3075 C.3     1  UNL1        0.0934
     21 N          65.4308   92.7751    0.2749 N.3     1  UNL1       -0.3174
     22 H          65.2136   92.0863    0.9952 H       1  UNL1        0.1192
     23 H          66.3562   93.1675    0.4478 H       1  UNL1        0.1192
     24 C          57.6948   93.4947   -3.7432 C.3     1  UNL1        0.1798
     25 N          57.2018   92.6236   -6.1407 N.am    1  UNL1       -0.2781
     26 C          57.4568   92.3537   -4.6873 C.2     1  UNL1        0.2460
     27 O          57.4739   90.9428   -4.1782 O.2     1  UNL1       -0.2730
     28 C          55.5622   91.0744   -7.4299 C.3     1  UNL1        0.0233
     29 C          56.9638   91.4825   -7.0849 C.3     1  UNL1        0.0935
     30 C          57.1847   94.0344   -6.6498 C.3     1  UNL1        0.0935
     31 C          55.8800   94.7548   -6.8195 C.3     1  UNL1        0.0233
@<TRIPOS>BOND
     1    28    29    1
     2    29    25    1
     3    25    30    1
     4    30    31    1
     5    25    26   am
     6    26    27    2
     7    26    24    1
     8    24     1    1
     9     1     2    1
    10     2     3    1
    11     3     4   ar
    12     4     5   ar
    13     5     6   ar
    14     6     7    1
    15     6     8   ar
    16     8    20    1
    17    20    21    1
    18     8     9   ar
    19     9    12    1
    20    12    13   ar
    21    13    14   ar
    22    14    15   ar
    23    15    16    1
    24    15    17   ar
    25    17    18   ar
    26    18    19    1
    27     4    10    1
    28    10    11    2
    29    10     1   am
    30     9     3   ar
    31    18    12   ar
    32    21    22    1
    33    21    23    1
