@<TRIPOS>MOLECULE
*****
 35 38 0 0 0
SMALL
GASTEIGER

@<TRIPOS>ATOM
      1 N          63.2807   90.3894   12.0580 N.am    1  UNL1       -0.2438
      2 C          63.9181   90.3322   13.4146 C.3     1  UNL1        0.1009
      3 C          65.0835   91.2210   13.7338 C.3     1  UNL1        0.0661
      4 C          65.6115   92.1670   12.6964 C.3     1  UNL1        0.1587
      5 O          64.9742   92.2242   11.3397 O.3     1  UNL1       -0.4375
      6 C          63.8088   91.3354   11.0205 C.2     1  UNL1        0.4051
      7 O          63.1714   91.3925    9.6639 O.2     1  UNL1       -0.2262
      8 C          66.5449   92.4756   13.8294 C.ar    1  UNL1        0.0138
      9 C          67.1881   91.3586   14.5966 C.ar    1  UNL1       -0.0010
     10 C          68.1215   91.6672   15.7297 C.ar    1  UNL1       -0.0002
     11 C          68.4115   93.0928   16.0953 C.ar    1  UNL1       -0.0000
     12 C          67.7683   94.2097   15.3281 C.ar    1  UNL1       -0.0002
     13 C          66.8349   93.9011   14.1951 C.ar    1  UNL1       -0.0010
     14 C          60.7817   90.1023   11.4082 C.3     1  UNL1        0.0265
     15 C          62.1153   89.5006   11.7388 C.3     1  UNL1        0.1011
     16 C          62.2836   88.0101   11.7503 C.ar    1  UNL1       -0.0042
     17 C          61.5212   87.1617   10.7763 C.ar    1  UNL1       -0.0027
     18 C          61.6895   85.6712   10.7878 C.ar    1  UNL1       -0.0003
     19 C          62.6203   85.0292   11.7734 C.ar    1  UNL1        0.0002
     20 C          63.3827   85.8775   12.7475 C.ar    1  UNL1       -0.0003
     21 C          63.2144   87.3680   12.7359 C.ar    1  UNL1       -0.0027
     22 C          62.7886   83.5386   11.7849 C.ar    1  UNL1        0.0062
     23 C          63.2138   82.8222   10.5375 C.ar    1  UNL1        0.0187
     24 C          63.3821   81.3317   10.5490 C.ar    1  UNL1        0.0747
     25 N          63.1251   80.5576   11.8079 N.ar    1  UNL1       -0.3199
     26 C          62.6998   81.2741   13.0553 C.ar    1  UNL1        0.2577
     27 O          62.4428   80.5000   14.3141 O.2     1  UNL1       -0.2672
     28 C          62.5316   82.7645   13.0437 C.ar    1  UNL1        0.0606
     29 H          63.2356   79.5794   11.8155 H       1  UNL1        0.1690
     30 C          66.4637   93.2202   12.0524 C.3     1  UNL1        0.0586
     31 C          67.2071   92.9128   10.7864 C.3     1  UNL1        0.0831
     32 C          67.9263   91.7942   11.4803 C.3     1  UNL1        0.0153
     33 C          66.4878   94.0313   10.0925 C.3     1  UNL1        0.0153
     34 C          67.9504   92.6053    9.5204 C.1     1  UNL1        0.0712
     35 N          68.6938   92.2979    8.2542 N.1     1  UNL1       -0.1959
@<TRIPOS>BOND
     1    15    14    1
     2    15    16    1
     3    16    17   ar
     4    17    18   ar
     5    18    19   ar
     6    19    22    1
     7    22    23   ar
     8    23    24   ar
     9    24    25   ar
    10    25    26   ar
    11    26    27    2
    12    26    28   ar
    13    19    20   ar
    14    20    21   ar
    15    15     1    1
    16     1     2    1
    17     2     3    1
    18     3     4    1
    19     4    30    1
    20    30    31    1
    21    31    32    1
    22    31    33    1
    23    31    34    1
    24    34    35    3
    25     4     8    1
    26     8     9   ar
    27     9    10   ar
    28    10    11   ar
    29    11    12   ar
    30    12    13   ar
    31     4     5    1
    32     5     6    1
    33     6     7    2
    34    21    16   ar
    35     6     1   am
    36    28    22   ar
    37    13     8   ar
    38    25    29    1
@<TRIPOS>MOLECULE
*****
 35 38 0 0 0
SMALL
GASTEIGER

@<TRIPOS>ATOM
      1 N          63.1087   90.9218   11.7282 N.am    1  UNL1       -0.2438
      2 C          63.6482   91.4035   10.4141 C.3     1  UNL1        0.1009
      3 C          64.7989   92.3653   10.3829 C.3     1  UNL1        0.0661
      4 C          65.4100   92.8454   11.6658 C.3     1  UNL1        0.1587
      5 O          64.8705   92.3637   12.9800 O.3     1  UNL1       -0.4375
      6 C          63.7199   91.4019   13.0112 C.2     1  UNL1        0.4051
      7 O          63.1804   90.9202   14.3253 O.2     1  UNL1       -0.2262
      8 C          66.2649   93.5828   10.6781 C.ar    1  UNL1        0.0138
      9 C          67.2038   92.8255    9.7865 C.ar    1  UNL1       -0.0010
     10 C          68.0587   93.5629    8.7987 C.ar    1  UNL1       -0.0002
     11 C          67.9746   95.0575    8.7028 C.ar    1  UNL1       -0.0000
     12 C          67.0357   95.8147    9.5944 C.ar    1  UNL1       -0.0002
     13 C          66.1808   95.0773   10.5822 C.ar    1  UNL1       -0.0010
     14 C          60.5495   90.4755   11.7598 C.3     1  UNL1        0.0265
     15 C          61.9581   89.9600   11.7593 C.3     1  UNL1        0.1011
     16 C          62.2161   88.4826   11.7900 C.ar    1  UNL1       -0.0042
     17 C          63.2437   87.9201   12.7268 C.ar    1  UNL1       -0.0027
     18 C          63.5016   86.4428   12.7575 C.ar    1  UNL1       -0.0003
     19 C          62.7321   85.5280   11.8514 C.ar    1  UNL1        0.0002
     20 C          61.7045   86.0906   10.9146 C.ar    1  UNL1       -0.0003
     21 C          61.4465   87.5679   10.8840 C.ar    1  UNL1       -0.0027
     22 C          62.9901   84.0507   11.8821 C.ar    1  UNL1        0.0062
     23 C          63.5307   83.3583   10.6663 C.ar    1  UNL1        0.0187
     24 C          63.7887   81.8809   10.6970 C.ar    1  UNL1        0.0747
     25 N          63.5061   81.0960   11.9436 N.ar    1  UNL1       -0.3199
     26 C          62.9654   81.7884   13.1595 C.ar    1  UNL1        0.2577
     27 O          62.6828   81.0035   14.4061 O.2     1  UNL1       -0.2672
     28 C          62.7074   83.2657   13.1287 C.ar    1  UNL1        0.0606
     29 H          63.6754   80.1264   11.9638 H       1  UNL1        0.1690
     30 C          66.3181   93.5816   12.6058 C.3     1  UNL1        0.0586
     31 C          67.0221   92.8402   13.7033 C.3     1  UNL1        0.0831
     32 C          66.5442   93.8572   14.6969 C.3     1  UNL1        0.0153
     33 C          67.4999   91.8232   12.7097 C.3     1  UNL1        0.0153
     34 C          67.7261   92.0988   14.8008 C.1     1  UNL1        0.0712
     35 N          68.4302   91.3575   15.8985 N.1     1  UNL1       -0.1959
@<TRIPOS>BOND
     1    15    14    1
     2    15    16    1
     3    16    17   ar
     4    17    18   ar
     5    18    19   ar
     6    19    22    1
     7    22    23   ar
     8    23    24   ar
     9    24    25   ar
    10    25    26   ar
    11    26    27    2
    12    26    28   ar
    13    19    20   ar
    14    20    21   ar
    15    15     1    1
    16     1     2    1
    17     2     3    1
    18     3     4    1
    19     4    30    1
    20    30    31    1
    21    31    32    1
    22    31    33    1
    23    31    34    1
    24    34    35    3
    25     4     8    1
    26     8     9   ar
    27     9    10   ar
    28    10    11   ar
    29    11    12   ar
    30    12    13   ar
    31     4     5    1
    32     5     6    1
    33     6     7    2
    34    21    16   ar
    35     6     1   am
    36    28    22   ar
    37    13     8   ar
    38    25    29    1
@<TRIPOS>MOLECULE
*****
 35 38 0 0 0
SMALL
GASTEIGER

@<TRIPOS>ATOM
      1 N          63.6830   88.5109   13.5409 N.am    1  UNL1       -0.2438
      2 C          64.1892   87.2221   14.1176 C.3     1  UNL1        0.1009
      3 C          63.8547   85.9200   13.4522 C.3     1  UNL1        0.0661
      4 C          63.0140   85.9068   12.2101 C.3     1  UNL1        0.1587
      5 O          62.5077   87.1957   11.6333 O.3     1  UNL1       -0.4375
      6 C          62.8422   88.4977   12.2987 C.2     1  UNL1        0.4051
      7 O          62.3360   89.7865   11.7220 O.2     1  UNL1       -0.2262
      8 C          63.2576   84.4360   12.3753 C.ar    1  UNL1        0.0138
      9 C          63.9609   83.6664   11.2968 C.ar    1  UNL1       -0.0010
     10 C          64.2046   82.1956   11.4621 C.ar    1  UNL1       -0.0002
     11 C          63.7449   81.4944   12.7058 C.ar    1  UNL1       -0.0000
     12 C          63.0416   82.2639   13.7843 C.ar    1  UNL1       -0.0002
     13 C          62.7979   83.7347   13.6191 C.ar    1  UNL1       -0.0010
     14 C          63.7794   89.9865   15.6771 C.3     1  UNL1        0.0265
     15 C          64.0175   89.8129   14.2064 C.3     1  UNL1        0.1011
     16 C          64.5901   90.9415   13.4010 C.ar    1  UNL1       -0.0042
     17 C          65.6760   91.7998   13.9788 C.ar    1  UNL1       -0.0027
     18 C          66.2485   92.9283   13.1734 C.ar    1  UNL1       -0.0003
     19 C          65.7351   93.1984   11.7902 C.ar    1  UNL1        0.0002
     20 C          64.6492   92.3401   11.2123 C.ar    1  UNL1       -0.0003
     21 C          64.0766   91.2116   12.0177 C.ar    1  UNL1       -0.0027
     22 C          66.3077   94.3270   10.9848 C.ar    1  UNL1        0.0062
     23 C          66.2696   95.7268   11.5223 C.ar    1  UNL1        0.0187
     24 C          66.8422   96.8554   10.7169 C.ar    1  UNL1        0.0747
     25 N          67.4528   96.5840    9.3740 N.ar    1  UNL1       -0.3199
     26 C          67.4909   95.1841    8.8364 C.ar    1  UNL1        0.2577
     27 O          68.1016   94.9127    7.4935 O.2     1  UNL1       -0.2672
     28 C          66.9184   94.0556    9.6418 C.ar    1  UNL1        0.0606
     29 H          67.8286   97.3246    8.8453 H       1  UNL1        0.1690
     30 C          62.2578   85.3828   11.0253 C.3     1  UNL1        0.0586
     31 C          61.6029   86.3374   10.0715 C.3     1  UNL1        0.0831
     32 C          62.6221   85.9924    9.0263 C.3     1  UNL1        0.0153
     33 C          60.5837   86.6823   11.1166 C.3     1  UNL1        0.0153
     34 C          60.9480   87.2920    9.1176 C.1     1  UNL1        0.0712
     35 N          60.2932   88.2466    8.1637 N.1     1  UNL1       -0.1959
@<TRIPOS>BOND
     1    15    14    1
     2    15    16    1
     3    16    17   ar
     4    17    18   ar
     5    18    19   ar
     6    19    22    1
     7    22    23   ar
     8    23    24   ar
     9    24    25   ar
    10    25    26   ar
    11    26    27    2
    12    26    28   ar
    13    19    20   ar
    14    20    21   ar
    15    15     1    1
    16     1     2    1
    17     2     3    1
    18     3     4    1
    19     4    30    1
    20    30    31    1
    21    31    32    1
    22    31    33    1
    23    31    34    1
    24    34    35    3
    25     4     8    1
    26     8     9   ar
    27     9    10   ar
    28    10    11   ar
    29    11    12   ar
    30    12    13   ar
    31     4     5    1
    32     5     6    1
    33     6     7    2
    34    21    16   ar
    35     6     1   am
    36    28    22   ar
    37    13     8   ar
    38    25    29    1
