@<TRIPOS>MOLECULE
*****
 45 49 0 0 0
SMALL
GASTEIGER

@<TRIPOS>ATOM
      1 C          63.0648   89.4467   13.1845 C.ar    1  UNL1        0.0846
      2 C          62.5916   88.8872   11.8757 C.ar    1  UNL1        0.0174
      3 C          62.6367   87.4077   11.6323 C.ar    1  UNL1       -0.0031
      4 C          63.1551   86.4878   12.6978 C.ar    1  UNL1       -0.0218
      5 C          63.6282   87.0474   14.0065 C.ar    1  UNL1        0.0091
      6 C          63.5831   88.5268   14.2499 C.ar    1  UNL1        0.1477
      7 C          64.1776   86.3133   15.1937 C.3     1  UNL1        0.0292
      8 C          64.3895   84.8381   15.3651 C.3     1  UNL1        0.0062
      9 C          64.1043   83.7331   14.3919 C.3     1  UNL1        0.0166
     10 C          63.5368   83.8299   13.0067 C.3     1  UNL1        0.0619
     11 C          63.1144   85.0559   12.2528 C.3     1  UNL1        0.0421
     12 N          63.3697   82.5288   12.2794 N.3     1  UNL1       -0.2713
     13 C          63.6480   82.4513   10.8074 C.3     1  UNL1        0.0896
     14 C          63.4808   81.1500   10.0800 C.3     1  UNL1        0.0897
     15 N          63.0355   79.9264   10.8246 N.3     1  UNL1       -0.2682
     16 C          62.7573   80.0039   12.2966 C.3     1  UNL1        0.0897
     17 C          62.9244   81.3052   13.0239 C.3     1  UNL1        0.0896
     18 C          62.8684   78.6253   10.0973 C.3     1  UNL1        0.1043
     19 C          62.7870   77.3406   10.8674 C.3     1  UNL1        0.1544
     20 O          62.8055   76.0284   10.1411 O.3     1  UNL1       -0.3805
     21 H          62.0032   75.9457    9.6023 H       1  UNL1        0.2105
     22 N          63.0196   90.9262   13.4278 N.pl3   1  UNL1       -0.2801
     23 H          62.1889   91.4274   13.2608 H       1  UNL1        0.1552
     24 C          66.3930   93.0167   13.4505 C.ar    1  UNL1        0.1472
     25 N          65.1724   92.3009   12.9526 N.ar    1  UNL1       -0.1976
     26 C          64.2402   91.6419   13.9257 C.ar    1  UNL1        0.2220
     27 N          64.5287   91.6987   15.3967 N.ar    1  UNL1       -0.2110
     28 C          65.7493   92.4143   15.8945 C.ar    1  UNL1        0.1160
     29 C          66.6814   93.0734   14.9214 C.ar    1  UNL1        0.1085
     30 CL         67.9020   93.7891   15.4193 Cl      1  UNL1       -0.0777
     31 N          67.3251   93.6757   12.4774 N.pl3   1  UNL1       -0.2970
     32 H          68.2930   93.5038   12.5294 H       1  UNL1        0.1536
     33 C          66.9776   94.2742    9.9732 C.ar    1  UNL1        0.0668
     34 C          66.4348   95.1951    8.9208 C.ar    1  UNL1        0.0058
     35 C          65.6966   96.4382    9.3204 C.ar    1  UNL1        0.0002
     36 C          65.5012   96.7606   10.7722 C.ar    1  UNL1        0.0013
     37 C          66.0440   95.8397   11.8246 C.ar    1  UNL1        0.0148
     38 C          66.7822   94.5965   11.4251 C.ar    1  UNL1        0.0537
     39 C          69.2653   91.7701    7.9125 C.3     1  UNL1        0.1109
     40 N          68.5270   93.0133    8.3121 N.am    1  UNL1       -0.2991
     41 C          67.7158   93.0311    9.5736 C.2     1  UNL1        0.2471
     42 O          67.6428   91.8057   10.4357 O.2     1  UNL1       -0.2701
     43 H          68.5750   93.8175    7.7463 H       1  UNL1        0.1498
     44 O          64.0563   89.0863   15.5588 O.3     1  UNL1       -0.4705
     45 C          63.1184   89.1568   16.7272 C.3     1  UNL1        0.2525
@<TRIPOS>BOND
     1    39    40    1
     2    40    41   am
     3    41    42    2
     4    41    33    1
     5    33    34   ar
     6    34    35   ar
     7    35    36   ar
     8    36    37   ar
     9    37    38   ar
    10    38    31    1
    11    31    24    1
    12    24    25   ar
    13    25    26   ar
    14    26    22    1
    15    22     1    1
    16     1     2   ar
    17     2     3   ar
    18     3     4   ar
    19     4     5   ar
    20     5     6   ar
    21     6    44    1
    22    44    45    1
    23     5     7    1
    24     7     8    1
    25     8     9    1
    26     9    10    1
    27    10    12    1
    28    12    13    1
    29    13    14    1
    30    14    15    1
    31    15    18    1
    32    18    19    1
    33    19    20    1
    34    15    16    1
    35    16    17    1
    36    10    11    1
    37    26    27   ar
    38    27    28   ar
    39    28    29   ar
    40    29    30    1
    41    38    33   ar
    42    29    24   ar
    43     6     1   ar
    44    17    12    1
    45    11     4    1
    46    40    43    1
    47    31    32    1
    48    22    23    1
    49    20    21    1
@<TRIPOS>MOLECULE
*****
 45 49 0 0 0
SMALL
GASTEIGER

@<TRIPOS>ATOM
      1 C          63.5285   89.8046   14.7337 C.ar    1  UNL1        0.0846
      2 C          63.8136   88.6020   15.5836 C.ar    1  UNL1        0.0174
      3 C          63.6890   87.2253   15.0011 C.ar    1  UNL1       -0.0031
      4 C          63.2793   87.0514   13.5686 C.ar    1  UNL1       -0.0218
      5 C          62.9942   88.2540   12.7188 C.ar    1  UNL1        0.0091
      6 C          63.1188   89.6306   13.3012 C.ar    1  UNL1        0.1477
      7 C          62.5753   88.3039   11.2792 C.3     1  UNL1        0.0292
      8 C          62.3380   87.1634   10.3342 C.3     1  UNL1        0.0062
      9 C          62.4611   85.6915   10.5952 C.3     1  UNL1        0.0166
     10 C          62.8518   84.9964   11.8657 C.3     1  UNL1        0.0619
     11 C          63.2160   85.6015   13.1890 C.3     1  UNL1        0.0421
     12 N          62.8824   83.4980   11.8048 N.3     1  UNL1       -0.2713
     13 C          62.3943   82.6898   12.9705 C.3     1  UNL1        0.0896
     14 C          62.4249   81.1913   12.9095 C.3     1  UNL1        0.0897
     15 N          62.9436   80.5010   11.6831 N.3     1  UNL1       -0.2682
     16 C          63.4318   81.3091   10.5174 C.3     1  UNL1        0.0897
     17 C          63.4012   82.8076   10.5783 C.3     1  UNL1        0.0896
     18 C          62.9743   79.0026   11.6222 C.3     1  UNL1        0.1043
     19 C          62.8294   78.3024   10.3035 C.3     1  UNL1        0.1544
     20 O          63.1419   76.8395   10.1928 O.3     1  UNL1       -0.3805
     21 H          64.0890   76.6986   10.3483 H       1  UNL1        0.2105
     22 N          63.6530   91.1812   15.3163 N.pl3   1  UNL1       -0.2801
     23 H          62.8765   91.6051   15.7482 H       1  UNL1        0.1552
     24 C          66.6094   93.4464   13.9455 C.ar    1  UNL1        0.1472
     25 N          65.3016   92.7156   14.0209 N.ar    1  UNL1       -0.1976
     26 C          64.9608   91.9120   15.2408 C.ar    1  UNL1        0.2220
     27 N          65.9279   91.8391   16.3852 N.ar    1  UNL1       -0.2110
     28 C          67.2356   92.5698   16.3098 C.ar    1  UNL1        0.1160
     29 C          67.5764   93.3735   15.0899 C.ar    1  UNL1        0.1085
     30 CL         68.8842   94.1042   15.0144 Cl      1  UNL1       -0.0777
     31 N          66.9502   94.2500   12.7256 N.pl3   1  UNL1       -0.2970
     32 H          66.8550   95.2298   12.7391 H       1  UNL1        0.1536
     33 C          67.2079   94.1866   10.1411 C.ar    1  UNL1        0.0668
     34 C          67.6937   93.4974    8.9005 C.ar    1  UNL1        0.0058
     35 C          68.4076   92.1821    9.0040 C.ar    1  UNL1        0.0002
     36 C          68.6357   91.5562   10.3479 C.ar    1  UNL1        0.0013
     37 C          68.1499   92.2455   11.5884 C.ar    1  UNL1        0.0148
     38 C          67.4360   93.5607   11.4851 C.ar    1  UNL1        0.0537
     39 C          64.2815   96.8551    9.8859 C.3     1  UNL1        0.1109
     40 N          64.9954   95.5400    9.9893 N.am    1  UNL1       -0.2991
     41 C          66.4941   95.5018   10.0376 C.2     1  UNL1        0.2471
     42 O          67.2790   96.7789    9.9825 O.2     1  UNL1       -0.2701
     43 H          64.4802   94.7018   10.0255 H       1  UNL1        0.1498
     44 O          62.8336   90.8333   12.4513 O.3     1  UNL1       -0.4705
     45 C          63.8023   91.2425   11.3817 C.3     1  UNL1        0.2525
@<TRIPOS>BOND
     1    39    40    1
     2    40    41   am
     3    41    42    2
     4    41    33    1
     5    33    34   ar
     6    34    35   ar
     7    35    36   ar
     8    36    37   ar
     9    37    38   ar
    10    38    31    1
    11    31    24    1
    12    24    25   ar
    13    25    26   ar
    14    26    22    1
    15    22     1    1
    16     1     2   ar
    17     2     3   ar
    18     3     4   ar
    19     4     5   ar
    20     5     6   ar
    21     6    44    1
    22    44    45    1
    23     5     7    1
    24     7     8    1
    25     8     9    1
    26     9    10    1
    27    10    12    1
    28    12    13    1
    29    13    14    1
    30    14    15    1
    31    15    18    1
    32    18    19    1
    33    19    20    1
    34    15    16    1
    35    16    17    1
    36    10    11    1
    37    26    27   ar
    38    27    28   ar
    39    28    29   ar
    40    29    30    1
    41    38    33   ar
    42    29    24   ar
    43     6     1   ar
    44    17    12    1
    45    11     4    1
    46    40    43    1
    47    31    32    1
    48    22    23    1
    49    20    21    1
@<TRIPOS>MOLECULE
*****
 45 49 0 0 0
SMALL
GASTEIGER

@<TRIPOS>ATOM
      1 C          63.3715   89.9571   14.0410 C.ar    1  UNL1        0.0846
      2 C          63.7119   88.8178   14.9555 C.ar    1  UNL1        0.0174
      3 C          63.6145   87.4048   14.4615 C.ar    1  UNL1       -0.0031
      4 C          63.1768   87.1311   13.0531 C.ar    1  UNL1       -0.0218
      5 C          62.8365   88.2704   12.1387 C.ar    1  UNL1        0.0091
      6 C          62.9338   89.6834   12.6326 C.ar    1  UNL1        0.1477
      7 C          62.3828   88.2194   10.7098 C.3     1  UNL1        0.0292
      8 C          62.1574   87.0164    9.8425 C.3     1  UNL1        0.0062
      9 C          62.3300   85.5676   10.1899 C.3     1  UNL1        0.0166
     10 C          62.7707   84.9635   11.4903 C.3     1  UNL1        0.0619
     11 C          63.1476   85.6594   12.7645 C.3     1  UNL1        0.0421
     12 N          62.8442   83.4657   11.5204 N.3     1  UNL1       -0.2713
     13 C          62.3268   82.7132   12.7104 C.3     1  UNL1        0.0896
     14 C          62.4003   81.2152   12.7405 C.3     1  UNL1        0.0897
     15 N          62.9912   80.4698   11.5807 N.3     1  UNL1       -0.2682
     16 C          63.5086   81.2223   10.3907 C.3     1  UNL1        0.0897
     17 C          63.4351   82.7203   10.3606 C.3     1  UNL1        0.0896
     18 C          63.0647   78.9720   11.6108 C.3     1  UNL1        0.1043
     19 C          62.7862   78.1822   10.3663 C.3     1  UNL1        0.1544
     20 O          62.8095   76.6830   10.4085 O.3     1  UNL1       -0.3805
     21 H          63.7114   76.3788   10.5954 H       1  UNL1        0.2105
     22 N          63.4688   91.3701   14.5350 N.pl3   1  UNL1       -0.2801
     23 H          62.6500   91.8846   14.7195 H       1  UNL1        0.1552
     24 C          66.8798   93.2648   13.8099 C.ar    1  UNL1        0.1472
     25 N          65.5348   92.6358   13.5970 N.ar    1  UNL1       -0.1976
     26 C          64.8138   91.9991   14.7480 C.ar    1  UNL1        0.2220
     27 N          65.4380   91.9914   16.1121 N.ar    1  UNL1       -0.2110
     28 C          66.7829   92.6204   16.3250 C.ar    1  UNL1        0.1160
     29 C          67.5038   93.2571   15.1740 C.ar    1  UNL1        0.1085
     30 CL         68.8488   93.8861   15.3870 Cl      1  UNL1       -0.0777
     31 N          67.6007   93.9014   12.6589 N.pl3   1  UNL1       -0.2970
     32 H          68.5681   93.7590   12.5445 H       1  UNL1        0.1536
     33 C          66.7834   94.3617   10.2360 C.ar    1  UNL1        0.0668
     34 C          66.0303   95.2154    9.2592 C.ar    1  UNL1        0.0058
     35 C          65.3413   96.4625    9.7286 C.ar    1  UNL1        0.0002
     36 C          65.4055   96.8559   11.1746 C.ar    1  UNL1        0.0013
     37 C          66.1586   96.0022   12.1514 C.ar    1  UNL1        0.0148
     38 C          66.8476   94.7551   11.6821 C.ar    1  UNL1        0.0537
     39 C          69.0845   91.9200    8.1164 C.3     1  UNL1        0.1109
     40 N          68.3956   93.1671    8.5857 N.am    1  UNL1       -0.2991
     41 C          67.4723   93.1147    9.7667 C.2     1  UNL1        0.2471
     42 O          67.2379   91.8153   10.4784 O.2     1  UNL1       -0.2701
     43 H          68.5494   94.0199    8.1186 H       1  UNL1        0.1498
     44 O          62.5935   90.8227   11.7182 O.3     1  UNL1       -0.4705
     45 C          63.6595   91.4441   10.8655 C.3     1  UNL1        0.2525
@<TRIPOS>BOND
     1    39    40    1
     2    40    41   am
     3    41    42    2
     4    41    33    1
     5    33    34   ar
     6    34    35   ar
     7    35    36   ar
     8    36    37   ar
     9    37    38   ar
    10    38    31    1
    11    31    24    1
    12    24    25   ar
    13    25    26   ar
    14    26    22    1
    15    22     1    1
    16     1     2   ar
    17     2     3   ar
    18     3     4   ar
    19     4     5   ar
    20     5     6   ar
    21     6    44    1
    22    44    45    1
    23     5     7    1
    24     7     8    1
    25     8     9    1
    26     9    10    1
    27    10    12    1
    28    12    13    1
    29    13    14    1
    30    14    15    1
    31    15    18    1
    32    18    19    1
    33    19    20    1
    34    15    16    1
    35    16    17    1
    36    10    11    1
    37    26    27   ar
    38    27    28   ar
    39    28    29   ar
    40    29    30    1
    41    38    33   ar
    42    29    24   ar
    43     6     1   ar
    44    17    12    1
    45    11     4    1
    46    40    43    1
    47    31    32    1
    48    22    23    1
    49    20    21    1
@<TRIPOS>MOLECULE
*****
 45 49 0 0 0
SMALL
GASTEIGER

@<TRIPOS>ATOM
      1 C          62.6159   88.6217   11.8551 C.ar    1  UNL1        0.0846
      2 C          63.0135   89.9352   11.2496 C.ar    1  UNL1        0.0174
      3 C          62.4116   90.3736    9.9474 C.ar    1  UNL1       -0.0031
      4 C          61.4121   89.4984    9.2508 C.ar    1  UNL1       -0.0218
      5 C          61.0146   88.1850    9.8564 C.ar    1  UNL1        0.0091
      6 C          61.6164   87.7466   11.1585 C.ar    1  UNL1        0.1477
      7 C          60.0438   87.1688    9.3318 C.3     1  UNL1        0.0292
      8 C          59.2309   87.2153    8.0720 C.3     1  UNL1        0.0062
      9 C          59.1880   88.2892    7.0258 C.3     1  UNL1        0.0166
     10 C          59.9473   89.5821    6.9808 C.3     1  UNL1        0.0619
     11 C          60.9371   90.1202    7.9711 C.3     1  UNL1        0.0421
     12 N          59.6816   90.4517    5.7879 N.3     1  UNL1       -0.2713
     13 C          58.2859   90.9162    5.4943 C.3     1  UNL1        0.0896
     14 C          58.0203   91.7859    4.3013 C.3     1  UNL1        0.0897
     15 N          59.1504   92.1911    3.4020 N.3     1  UNL1       -0.2682
     16 C          60.5461   91.7266    3.6956 C.3     1  UNL1        0.0897
     17 C          60.8117   90.8569    4.8886 C.3     1  UNL1        0.0896
     18 C          58.8847   93.0608    2.2091 C.3     1  UNL1        0.1043
     19 C          59.7030   92.8949    0.9628 C.3     1  UNL1        0.1544
     20 O          59.3036   91.8802   -0.0670 O.3     1  UNL1       -0.3805
     21 H          59.3927   90.9890    0.3055 H       1  UNL1        0.2105
     22 N          63.2178   88.1834   13.1572 N.pl3   1  UNL1       -0.2801
     23 H          63.4113   87.2310   13.3143 H       1  UNL1        0.1552
     24 C          64.6809   91.4029   14.9587 C.ar    1  UNL1        0.1472
     25 N          64.3738   90.3899   13.8958 N.ar    1  UNL1       -0.1976
     26 C          63.5250   89.1964   14.2201 C.ar    1  UNL1        0.2220
     27 N          62.9835   89.0158   15.6073 N.ar    1  UNL1       -0.2110
     28 C          63.2906   90.0287   16.6701 C.ar    1  UNL1        0.1160
     29 C          64.1393   91.2222   16.3458 C.ar    1  UNL1        0.1085
     30 CL         64.4465   92.2352   17.4086 Cl      1  UNL1       -0.0777
     31 N          65.5296   92.5964   14.6343 N.pl3   1  UNL1       -0.2970
     32 H          65.1118   93.4188   14.2904 H       1  UNL1        0.1536
     33 C          67.9295   92.4725   13.6466 C.ar    1  UNL1        0.0668
     34 C          69.4150   92.4129   13.8463 C.ar    1  UNL1        0.0058
     35 C          69.9861   92.4177   15.2333 C.ar    1  UNL1        0.0002
     36 C          69.0718   92.4820   16.4207 C.ar    1  UNL1        0.0013
     37 C          67.5863   92.5415   16.2210 C.ar    1  UNL1        0.0148
     38 C          67.0151   92.5368   14.8340 C.ar    1  UNL1        0.0537
     39 C          67.6673   92.1449    9.7002 C.3     1  UNL1        0.1109
     40 N          68.2384   92.1497   11.0873 N.am    1  UNL1       -0.2991
     41 C          67.3584   92.4678   12.2596 C.2     1  UNL1        0.2471
     42 O          65.9073   92.7812   12.0450 O.2     1  UNL1       -0.2701
     43 H          69.1908   91.9440   11.2282 H       1  UNL1        0.1498
     44 O          61.2189   86.4331   11.7641 O.3     1  UNL1       -0.4705
     45 C          62.1023   85.2324   11.5975 C.3     1  UNL1        0.2525
@<TRIPOS>BOND
     1    39    40    1
     2    40    41   am
     3    41    42    2
     4    41    33    1
     5    33    34   ar
     6    34    35   ar
     7    35    36   ar
     8    36    37   ar
     9    37    38   ar
    10    38    31    1
    11    31    24    1
    12    24    25   ar
    13    25    26   ar
    14    26    22    1
    15    22     1    1
    16     1     2   ar
    17     2     3   ar
    18     3     4   ar
    19     4     5   ar
    20     5     6   ar
    21     6    44    1
    22    44    45    1
    23     5     7    1
    24     7     8    1
    25     8     9    1
    26     9    10    1
    27    10    12    1
    28    12    13    1
    29    13    14    1
    30    14    15    1
    31    15    18    1
    32    18    19    1
    33    19    20    1
    34    15    16    1
    35    16    17    1
    36    10    11    1
    37    26    27   ar
    38    27    28   ar
    39    28    29   ar
    40    29    30    1
    41    38    33   ar
    42    29    24   ar
    43     6     1   ar
    44    17    12    1
    45    11     4    1
    46    40    43    1
    47    31    32    1
    48    22    23    1
    49    20    21    1
@<TRIPOS>MOLECULE
*****
 45 49 0 0 0
SMALL
GASTEIGER

@<TRIPOS>ATOM
      1 C          62.3966   88.6922   11.8372 C.ar    1  UNL1        0.0846
      2 C          62.8033   90.0147   11.2579 C.ar    1  UNL1        0.0174
      3 C          62.2488   90.4570    9.9362 C.ar    1  UNL1       -0.0031
      4 C          61.2876   89.5767    9.1937 C.ar    1  UNL1       -0.0218
      5 C          60.8810   88.2542    9.7730 C.ar    1  UNL1        0.0091
      6 C          61.4354   87.8119   11.0947 C.ar    1  UNL1        0.1477
      7 C          59.9432   87.2318    9.2024 C.3     1  UNL1        0.0292
      8 C          59.1806   87.2796    7.9116 C.3     1  UNL1        0.0062
      9 C          59.1673   88.3614    6.8727 C.3     1  UNL1        0.0166
     10 C          59.9134   89.6627    6.8678 C.3     1  UNL1        0.0619
     11 C          60.8570   90.2036    7.9008 C.3     1  UNL1        0.0421
     12 N          59.6857   90.5390    5.6720 N.3     1  UNL1       -0.2713
     13 C          60.8429   90.9435    4.8074 C.3     1  UNL1        0.0896
     14 C          60.6151   91.8199    3.6114 C.3     1  UNL1        0.0897
     15 N          59.2304   92.2917    3.2800 N.3     1  UNL1       -0.2682
     16 C          58.0732   91.8872    4.1446 C.3     1  UNL1        0.0897
     17 C          58.3010   91.0109    5.3406 C.3     1  UNL1        0.0896
     18 C          59.0027   93.1680    2.0842 C.3     1  UNL1        0.1043
     19 C          59.7443   92.9024    0.8076 C.3     1  UNL1        0.1544
     20 O          59.3901   91.7105   -0.0314 O.3     1  UNL1       -0.3805
     21 H          59.6054   90.8984    0.4534 H       1  UNL1        0.2105
     22 N          62.9512   88.2500   13.1589 N.pl3   1  UNL1       -0.2801
     23 H          63.0137   87.2905   13.3703 H       1  UNL1        0.1552
     24 C          64.7644   91.4133   14.7260 C.ar    1  UNL1        0.1472
     25 N          64.3052   90.3935   13.7264 N.ar    1  UNL1       -0.1976
     26 C          63.4104   89.2697   14.1585 C.ar    1  UNL1        0.2220
     27 N          62.9749   89.1658   15.5902 N.ar    1  UNL1       -0.2110
     28 C          63.4342   90.1855   16.5897 C.ar    1  UNL1        0.1160
     29 C          64.3289   91.3093   16.1577 C.ar    1  UNL1        0.1085
     30 CL         64.7882   92.3290   17.1573 Cl      1  UNL1       -0.0777
     31 N          65.6592   92.5370   14.2939 N.pl3   1  UNL1       -0.2970
     32 H          65.8774   93.2622   14.9229 H       1  UNL1        0.1536
     33 C          67.6969   92.3909   12.6888 C.ar    1  UNL1        0.0668
     34 C          68.2592   92.4095   11.2982 C.ar    1  UNL1        0.0058
     35 C          67.3460   92.5929   10.1224 C.ar    1  UNL1        0.0002
     36 C          65.8706   92.7577   10.3370 C.ar    1  UNL1        0.0013
     37 C          65.3084   92.7390   11.7275 C.ar    1  UNL1        0.0148
     38 C          66.2215   92.5556   12.9034 C.ar    1  UNL1        0.0537
     39 C          68.9575   91.9755   16.4288 C.3     1  UNL1        0.1109
     40 N          68.0444   92.1589   15.2530 N.am    1  UNL1       -0.2991
     41 C          68.6100   92.2075   13.8645 C.2     1  UNL1        0.2471
     42 O          70.0887   92.0727   13.6520 O.2     1  UNL1       -0.2701
     43 H          67.0739   92.2473   15.3925 H       1  UNL1        0.1498
     44 O          61.0288   86.4894   11.6739 O.3     1  UNL1       -0.4705
     45 C          61.9344   85.3013   11.5392 C.3     1  UNL1        0.2525
@<TRIPOS>BOND
     1    39    40    1
     2    40    41   am
     3    41    42    2
     4    41    33    1
     5    33    34   ar
     6    34    35   ar
     7    35    36   ar
     8    36    37   ar
     9    37    38   ar
    10    38    31    1
    11    31    24    1
    12    24    25   ar
    13    25    26   ar
    14    26    22    1
    15    22     1    1
    16     1     2   ar
    17     2     3   ar
    18     3     4   ar
    19     4     5   ar
    20     5     6   ar
    21     6    44    1
    22    44    45    1
    23     5     7    1
    24     7     8    1
    25     8     9    1
    26     9    10    1
    27    10    12    1
    28    12    13    1
    29    13    14    1
    30    14    15    1
    31    15    18    1
    32    18    19    1
    33    19    20    1
    34    15    16    1
    35    16    17    1
    36    10    11    1
    37    26    27   ar
    38    27    28   ar
    39    28    29   ar
    40    29    30    1
    41    38    33   ar
    42    29    24   ar
    43     6     1   ar
    44    17    12    1
    45    11     4    1
    46    40    43    1
    47    31    32    1
    48    22    23    1
    49    20    21    1
@<TRIPOS>MOLECULE
*****
 45 49 0 0 0
SMALL
GASTEIGER

@<TRIPOS>ATOM
      1 C          62.3919   93.2660    1.6548 C.ar    1  UNL1        0.0846
      2 C          63.3487   92.3364    2.3409 C.ar    1  UNL1        0.0174
      3 C          62.8781   91.4840    3.4820 C.ar    1  UNL1       -0.0031
      4 C          61.4508   91.5612    3.9370 C.ar    1  UNL1       -0.0218
      5 C          60.4942   92.4907    3.2509 C.ar    1  UNL1        0.0091
      6 C          60.9647   93.3431    2.1098 C.ar    1  UNL1        0.1477
      7 C          59.0410   92.7203    3.5435 C.3     1  UNL1        0.0292
      8 C          58.1857   92.0770    4.5946 C.3     1  UNL1        0.0062
      9 C          58.5722   91.0454    5.6125 C.3     1  UNL1        0.0166
     10 C          59.9096   90.4021    5.8309 C.3     1  UNL1        0.0619
     11 C          61.1907   90.6317    5.0852 C.3     1  UNL1        0.0421
     12 N          59.9744   89.3964    6.9418 N.3     1  UNL1       -0.2713
     13 C          59.4478   88.0081    6.7283 C.3     1  UNL1        0.0896
     14 C          59.5127   87.0023    7.8393 C.3     1  UNL1        0.0897
     15 N          60.1041   87.3847    9.1637 N.3     1  UNL1       -0.2682
     16 C          60.6307   88.7730    9.3772 C.3     1  UNL1        0.0897
     17 C          60.5658   89.7788    8.2661 C.3     1  UNL1        0.0896
     18 C          60.1689   86.3790   10.2746 C.3     1  UNL1        0.1043
     19 C          61.4990   85.9289   10.8022 C.3     1  UNL1        0.1544
     20 O          62.2288   86.7670   11.8096 O.3     1  UNL1       -0.3805
     21 H          62.4917   87.6069   11.4018 H       1  UNL1        0.2105
     22 N          62.8625   94.1183    0.5138 N.pl3   1  UNL1       -0.2801
     23 H          63.6343   94.7178    0.6328 H       1  UNL1        0.1552
     24 C          60.1268   93.3019   -2.2429 C.ar    1  UNL1        0.1472
     25 N          60.8322   93.3630   -0.9205 N.ar    1  UNL1       -0.1976
     26 C          62.1572   94.0572   -0.8086 C.ar    1  UNL1        0.2220
     27 N          62.7767   94.6903   -2.0192 N.ar    1  UNL1       -0.2110
     28 C          62.0714   94.6293   -3.3415 C.ar    1  UNL1        0.1160
     29 C          60.7464   93.9350   -3.4534 C.ar    1  UNL1        0.1085
     30 CL         60.0411   93.8739   -4.7758 Cl      1  UNL1       -0.0777
     31 N          58.8018   92.6077   -2.3548 N.pl3   1  UNL1       -0.2970
     32 H          58.7622   91.6244   -2.3845 H       1  UNL1        0.1536
     33 C          56.6165   93.2654   -3.5965 C.ar    1  UNL1        0.0668
     34 C          55.3519   94.0694   -3.6631 C.ar    1  UNL1        0.0058
     35 C          55.0080   95.0195   -2.5544 C.ar    1  UNL1        0.0002
     36 C          55.9286   95.1657   -1.3793 C.ar    1  UNL1        0.0013
     37 C          57.1932   94.3618   -1.3127 C.ar    1  UNL1        0.0148
     38 C          57.5372   93.4116   -2.4213 C.ar    1  UNL1        0.0537
     39 C          57.2757   91.8332   -7.2385 C.3     1  UNL1        0.1109
     40 N          56.9318   92.7833   -6.1299 N.am    1  UNL1       -0.2991
     41 C          56.9604   92.3154   -4.7051 C.2     1  UNL1        0.2471
     42 O          57.3331   90.8972   -4.3889 O.2     1  UNL1       -0.2701
     43 H          56.6872   93.7141   -6.3374 H       1  UNL1        0.1498
     44 O          60.0080   94.2726    1.4238 O.3     1  UNL1       -0.4705
     45 C          60.0582   95.7445    1.7082 C.3     1  UNL1        0.2525
@<TRIPOS>BOND
     1    39    40    1
     2    40    41   am
     3    41    42    2
     4    41    33    1
     5    33    34   ar
     6    34    35   ar
     7    35    36   ar
     8    36    37   ar
     9    37    38   ar
    10    38    31    1
    11    31    24    1
    12    24    25   ar
    13    25    26   ar
    14    26    22    1
    15    22     1    1
    16     1     2   ar
    17     2     3   ar
    18     3     4   ar
    19     4     5   ar
    20     5     6   ar
    21     6    44    1
    22    44    45    1
    23     5     7    1
    24     7     8    1
    25     8     9    1
    26     9    10    1
    27    10    12    1
    28    12    13    1
    29    13    14    1
    30    14    15    1
    31    15    18    1
    32    18    19    1
    33    19    20    1
    34    15    16    1
    35    16    17    1
    36    10    11    1
    37    26    27   ar
    38    27    28   ar
    39    28    29   ar
    40    29    30    1
    41    38    33   ar
    42    29    24   ar
    43     6     1   ar
    44    17    12    1
    45    11     4    1
    46    40    43    1
    47    31    32    1
    48    22    23    1
    49    20    21    1
@<TRIPOS>MOLECULE
*****
 45 49 0 0 0
SMALL
GASTEIGER

@<TRIPOS>ATOM
      1 C          62.6034   89.2066   11.6906 C.ar    1  UNL1        0.0846
      2 C          63.0370   90.4704   11.0090 C.ar    1  UNL1        0.0174
      3 C          62.4458   90.8485    9.6832 C.ar    1  UNL1       -0.0031
      4 C          61.4209   89.9625    9.0391 C.ar    1  UNL1       -0.0218
      5 C          60.9873   88.6988    9.7207 C.ar    1  UNL1        0.0091
      6 C          61.5785   88.3207   11.0464 C.ar    1  UNL1        0.1477
      7 C          59.9874   87.6814    9.2565 C.3     1  UNL1        0.0292
      8 C          59.1742   87.6768    7.9960 C.3     1  UNL1        0.0062
      9 C          59.1601   88.6883    6.8885 C.3     1  UNL1        0.0166
     10 C          59.9556   89.9542    6.7678 C.3     1  UNL1        0.0619
     11 C          60.9618   90.5213    7.7249 C.3     1  UNL1        0.0421
     12 N          59.7129   90.7595    5.5259 N.3     1  UNL1       -0.2713
     13 C          60.8640   91.1434    4.6440 C.3     1  UNL1        0.0896
     14 C          60.6213   91.9488    3.4020 C.3     1  UNL1        0.0897
     15 N          59.2275   92.3702    3.0418 N.3     1  UNL1       -0.2682
     16 C          58.0764   91.9863    3.9237 C.3     1  UNL1        0.0897
     17 C          58.3191   91.1810    5.1657 C.3     1  UNL1        0.0896
     18 C          58.9848   93.1755    1.7998 C.3     1  UNL1        0.1043
     19 C          59.7130   92.8377    0.5327 C.3     1  UNL1        0.1544
     20 O          59.5063   91.5021   -0.1179 O.3     1  UNL1       -0.3805
     21 H          59.8529   90.8041    0.4595 H       1  UNL1        0.2105
     22 N          63.1946   88.8286   13.0163 N.pl3   1  UNL1       -0.2801
     23 H          63.1087   87.9058   13.3485 H       1  UNL1        0.1552
     24 C          65.3455   92.0219   13.9790 C.ar    1  UNL1        0.1472
     25 N          64.6234   90.9939   13.1594 N.ar    1  UNL1       -0.1976
     26 C          63.9167   89.8567   13.8359 C.ar    1  UNL1        0.2220
     27 N          63.9322   89.7476   15.3319 N.ar    1  UNL1       -0.2110
     28 C          64.6543   90.7756   16.1514 C.ar    1  UNL1        0.1160
     29 C          65.3609   91.9128   15.4750 C.ar    1  UNL1        0.1085
     30 CL         66.0830   92.9409   16.2945 Cl      1  UNL1       -0.0777
     31 N          66.0521   93.1590   13.3026 N.pl3   1  UNL1       -0.2970
     32 H          66.0009   94.0660   13.6821 H       1  UNL1        0.1536
     33 C          66.8029   93.9185   10.9341 C.ar    1  UNL1        0.0668
     34 C          67.5876   93.6738    9.6793 C.ar    1  UNL1        0.0058
     35 C          68.4061   92.4247    9.5383 C.ar    1  UNL1        0.0002
     36 C          68.4401   91.4204   10.6519 C.ar    1  UNL1        0.0013
     37 C          67.6554   91.6652   11.9067 C.ar    1  UNL1        0.0148
     38 C          66.8368   92.9143   12.0478 C.ar    1  UNL1        0.0537
     39 C          64.2668   96.8544   10.0981 C.3     1  UNL1        0.1109
     40 N          65.0854   95.6054    9.9570 N.am    1  UNL1       -0.2991
     41 C          65.9844   95.1675   11.0751 C.2     1  UNL1        0.2471
     42 O          66.0648   95.9787   12.3343 O.2     1  UNL1       -0.2701
     43 H          65.0326   95.0730    9.1306 H       1  UNL1        0.1498
     44 O          61.1448   87.0568   11.7280 O.3     1  UNL1       -0.4705
     45 C          61.9975   85.8260   11.6388 C.3     1  UNL1        0.2525
@<TRIPOS>BOND
     1    39    40    1
     2    40    41   am
     3    41    42    2
     4    41    33    1
     5    33    34   ar
     6    34    35   ar
     7    35    36   ar
     8    36    37   ar
     9    37    38   ar
    10    38    31    1
    11    31    24    1
    12    24    25   ar
    13    25    26   ar
    14    26    22    1
    15    22     1    1
    16     1     2   ar
    17     2     3   ar
    18     3     4   ar
    19     4     5   ar
    20     5     6   ar
    21     6    44    1
    22    44    45    1
    23     5     7    1
    24     7     8    1
    25     8     9    1
    26     9    10    1
    27    10    12    1
    28    12    13    1
    29    13    14    1
    30    14    15    1
    31    15    18    1
    32    18    19    1
    33    19    20    1
    34    15    16    1
    35    16    17    1
    36    10    11    1
    37    26    27   ar
    38    27    28   ar
    39    28    29   ar
    40    29    30    1
    41    38    33   ar
    42    29    24   ar
    43     6     1   ar
    44    17    12    1
    45    11     4    1
    46    40    43    1
    47    31    32    1
    48    22    23    1
    49    20    21    1
@<TRIPOS>MOLECULE
*****
 45 49 0 0 0
SMALL
GASTEIGER

@<TRIPOS>ATOM
      1 C          61.6845   90.2827   10.3222 C.ar    1  UNL1        0.0846
      2 C          62.7996   91.1329    9.7893 C.ar    1  UNL1        0.0174
      3 C          63.9132   91.5645   10.6968 C.ar    1  UNL1       -0.0031
      4 C          63.9117   91.1460   12.1373 C.ar    1  UNL1       -0.0218
      5 C          62.7968   90.2959   12.6701 C.ar    1  UNL1        0.0091
      6 C          61.6832   89.8642   11.7627 C.ar    1  UNL1        0.1477
      7 C          62.6036   89.7717   14.0623 C.3     1  UNL1        0.0292
      8 C          63.4778   89.9683   15.2653 C.3     1  UNL1        0.0062
      9 C          64.7609   90.7375   15.3733 C.3     1  UNL1        0.0166
     10 C          65.4869   91.5002   14.3050 C.3     1  UNL1        0.0619
     11 C          65.1090   91.6820   12.8648 C.3     1  UNL1        0.0421
     12 N          66.7590   92.1695   14.7335 N.3     1  UNL1       -0.2713
     13 C          66.7761   93.0320   15.9607 C.3     1  UNL1        0.0896
     14 C          68.0483   93.7014   16.3893 C.3     1  UNL1        0.0897
     15 N          69.3033   93.5084   15.5907 N.3     1  UNL1       -0.2682
     16 C          69.2861   92.6459   14.3635 C.3     1  UNL1        0.0897
     17 C          68.0139   91.9765   13.9349 C.3     1  UNL1        0.0896
     18 C          70.5753   94.1778   16.0192 C.3     1  UNL1        0.1043
     19 C          70.9377   95.5241   15.4659 C.3     1  UNL1        0.1544
     20 O          72.3276   95.7789   14.9630 O.3     1  UNL1       -0.3805
     21 H          72.9526   95.7342   15.7034 H       1  UNL1        0.2105
     22 N          60.5710   89.8511    9.4146 N.pl3   1  UNL1       -0.2801
     23 H          59.8260   90.4655    9.2230 H       1  UNL1        0.1552
     24 C          61.5169   86.0559    8.7423 C.ar    1  UNL1        0.1472
     25 N          61.4953   87.4236    9.3578 N.ar    1  UNL1       -0.1976
     26 C          60.5926   88.4834    8.7991 C.ar    1  UNL1        0.2220
     27 N          59.7116   88.1753    7.6248 N.ar    1  UNL1       -0.2110
     28 C          59.7331   86.8077    7.0092 C.ar    1  UNL1        0.1160
     29 C          60.6358   85.7479    7.5680 C.ar    1  UNL1        0.1085
     30 CL         60.6574   84.3802    6.9524 Cl      1  UNL1       -0.0777
     31 N          62.4195   84.9962    9.3010 N.pl3   1  UNL1       -0.2970
     32 H          62.7298   84.2602    8.7255 H       1  UNL1        0.1536
     33 C          63.4768   83.8590   11.3841 C.ar    1  UNL1        0.0668
     34 C          63.9067   83.9207   12.8198 C.ar    1  UNL1        0.0058
     35 C          63.7092   85.1814   13.6084 C.ar    1  UNL1        0.0002
     36 C          63.0817   86.3803   12.9612 C.ar    1  UNL1        0.0013
     37 C          62.6519   86.3186   11.5254 C.ar    1  UNL1        0.0148
     38 C          62.8494   85.0579   10.7368 C.ar    1  UNL1        0.0537
     39 C          63.0704   80.1134   10.1367 C.3     1  UNL1        0.1109
     40 N          62.8728   81.3741   10.9252 N.am    1  UNL1       -0.2991
     41 C          63.6744   82.5984   10.5956 C.2     1  UNL1        0.2471
     42 O          64.6735   82.5620    9.4774 O.2     1  UNL1       -0.2701
     43 H          62.2171   81.3980   11.6591 H       1  UNL1        0.1498
     44 O          60.5682   89.0140   12.2956 O.3     1  UNL1       -0.4705
     45 C          59.1742   89.5633   12.3661 C.3     1  UNL1        0.2525
@<TRIPOS>BOND
     1    39    40    1
     2    40    41   am
     3    41    42    2
     4    41    33    1
     5    33    34   ar
     6    34    35   ar
     7    35    36   ar
     8    36    37   ar
     9    37    38   ar
    10    38    31    1
    11    31    24    1
    12    24    25   ar
    13    25    26   ar
    14    26    22    1
    15    22     1    1
    16     1     2   ar
    17     2     3   ar
    18     3     4   ar
    19     4     5   ar
    20     5     6   ar
    21     6    44    1
    22    44    45    1
    23     5     7    1
    24     7     8    1
    25     8     9    1
    26     9    10    1
    27    10    12    1
    28    12    13    1
    29    13    14    1
    30    14    15    1
    31    15    18    1
    32    18    19    1
    33    19    20    1
    34    15    16    1
    35    16    17    1
    36    10    11    1
    37    26    27   ar
    38    27    28   ar
    39    28    29   ar
    40    29    30    1
    41    38    33   ar
    42    29    24   ar
    43     6     1   ar
    44    17    12    1
    45    11     4    1
    46    40    43    1
    47    31    32    1
    48    22    23    1
    49    20    21    1
@<TRIPOS>MOLECULE
*****
 45 49 0 0 0
SMALL
GASTEIGER

@<TRIPOS>ATOM
      1 C          62.5907   88.7657   12.6463 C.ar    1  UNL1        0.0846
      2 C          61.8255   88.0852   11.5502 C.ar    1  UNL1        0.0174
      3 C          61.9404   86.6011   11.3650 C.ar    1  UNL1       -0.0031
      4 C          62.8205   85.7975   12.2759 C.ar    1  UNL1       -0.0218
      5 C          63.5856   86.4780   13.3719 C.ar    1  UNL1        0.0091
      6 C          63.4708   87.9621   13.5571 C.ar    1  UNL1        0.1477
      7 C          64.5119   85.8697   14.3829 C.3     1  UNL1        0.0292
      8 C          64.9016   84.4305   14.5475 C.3     1  UNL1        0.0062
      9 C          64.4615   83.2445   13.7418 C.3     1  UNL1        0.0166
     10 C          63.5228   83.2044   12.5724 C.3     1  UNL1        0.0619
     11 C          62.7925   84.3406   11.9200 C.3     1  UNL1        0.0421
     12 N          63.2827   81.8489   11.9767 N.3     1  UNL1       -0.2713
     13 C          62.8773   80.7039   12.8569 C.3     1  UNL1        0.0896
     14 C          62.6372   79.3483   12.2612 C.3     1  UNL1        0.0897
     15 N          62.8025   79.1377   10.7853 N.3     1  UNL1       -0.2682
     16 C          63.2080   80.2827    9.9050 C.3     1  UNL1        0.0897
     17 C          63.4481   81.6383   10.5008 C.3     1  UNL1        0.0896
     18 C          62.5625   77.7822   10.1896 C.3     1  UNL1        0.1043
     19 C          63.6145   76.7184   10.2978 C.3     1  UNL1        0.1544
     20 O          64.6989   76.6282    9.2654 O.3     1  UNL1       -0.3805
     21 H          64.3113   76.3868    8.4096 H       1  UNL1        0.2105
     22 N          62.4757   90.2498   12.8314 N.pl3   1  UNL1       -0.2801
     23 H          61.8346   90.6165   13.4823 H       1  UNL1        0.1552
     24 C          65.2472   92.9323   11.8970 C.ar    1  UNL1        0.1472
     25 N          64.3853   92.0069   12.7037 N.ar    1  UNL1       -0.1976
     26 C          63.3377   91.1751   12.0247 C.ar    1  UNL1        0.2220
     27 N          63.1523   91.2688   10.5391 N.ar    1  UNL1       -0.2110
     28 C          64.0142   92.1941    9.7325 C.ar    1  UNL1        0.1160
     29 C          65.0617   93.0259   10.4114 C.ar    1  UNL1        0.1085
     30 CL         65.9237   93.9513    9.6048 Cl      1  UNL1       -0.0777
     31 N          66.2947   93.7641   12.5760 N.pl3   1  UNL1       -0.2970
     32 H          66.4944   94.6698   12.2458 H       1  UNL1        0.1536
     33 C          68.2060   92.2980   13.5496 C.ar    1  UNL1        0.0668
     34 C          68.9491   91.7497   14.7316 C.ar    1  UNL1        0.0058
     35 C          68.5242   92.1191   16.1219 C.ar    1  UNL1        0.0002
     36 C          67.3562   93.0368   16.3303 C.ar    1  UNL1        0.0013
     37 C          66.6130   93.5851   15.1483 C.ar    1  UNL1        0.0148
     38 C          67.0379   93.2157   13.7579 C.ar    1  UNL1        0.0537
     39 C          68.9719   92.5714    9.6652 C.3     1  UNL1        0.1109
     40 N          68.5470   92.9408   11.0555 N.am    1  UNL1       -0.2991
     41 C          68.6309   91.9286   12.1593 C.2     1  UNL1        0.2471
     42 O          69.1397   90.5469   11.8728 O.2     1  UNL1       -0.2701
     43 H          68.2130   93.8476   11.2436 H       1  UNL1        0.1498
     44 O          64.2360   88.6426   14.6532 O.3     1  UNL1       -0.4705
     45 C          63.5025   89.2815   15.7950 C.3     1  UNL1        0.2525
@<TRIPOS>BOND
     1    39    40    1
     2    40    41   am
     3    41    42    2
     4    41    33    1
     5    33    34   ar
     6    34    35   ar
     7    35    36   ar
     8    36    37   ar
     9    37    38   ar
    10    38    31    1
    11    31    24    1
    12    24    25   ar
    13    25    26   ar
    14    26    22    1
    15    22     1    1
    16     1     2   ar
    17     2     3   ar
    18     3     4   ar
    19     4     5   ar
    20     5     6   ar
    21     6    44    1
    22    44    45    1
    23     5     7    1
    24     7     8    1
    25     8     9    1
    26     9    10    1
    27    10    12    1
    28    12    13    1
    29    13    14    1
    30    14    15    1
    31    15    18    1
    32    18    19    1
    33    19    20    1
    34    15    16    1
    35    16    17    1
    36    10    11    1
    37    26    27   ar
    38    27    28   ar
    39    28    29   ar
    40    29    30    1
    41    38    33   ar
    42    29    24   ar
    43     6     1   ar
    44    17    12    1
    45    11     4    1
    46    40    43    1
    47    31    32    1
    48    22    23    1
    49    20    21    1
