@<TRIPOS>MOLECULE
*****
 32 35 0 0 0
SMALL
GASTEIGER

@<TRIPOS>ATOM
      1 N          64.6086   83.7591   15.0464 N.3     1  UNL1       -0.3205
      2 C          64.0074   84.6550   14.0043 C.3     1  UNL1        0.0766
      3 C          63.9599   86.1535   14.0508 C.3     1  UNL1        0.1079
      4 N          63.2713   86.6343   12.8079 N.pl3   1  UNL1       -0.2914
      5 C          62.8932   85.4329   11.9932 C.3     1  UNL1        0.0980
      6 C          63.3481   84.2096   12.7326 C.3     1  UNL1        0.0602
      7 H          64.9872   84.3263   15.8049 H       1  UNL1        0.1189
      8 H          65.3572   83.2064   14.6287 H       1  UNL1        0.1189
      9 C          63.1743   82.7902   12.2798 C.ar    1  UNL1        0.0103
     10 C          62.5864   81.7723   13.2117 C.ar    1  UNL1        0.0300
     11 C          62.4126   80.3529   12.7590 C.ar    1  UNL1        0.1672
     12 F          61.8248   79.3350   13.6909 F       1  UNL1       -0.2018
     13 C          62.8266   79.9513   11.3744 C.ar    1  UNL1        0.1696
     14 F          62.6528   78.5319   10.9216 F       1  UNL1       -0.2017
     15 C          63.4145   80.9692   10.4424 C.ar    1  UNL1        0.0612
     16 C          63.5883   82.3885   10.8952 C.ar    1  UNL1        0.1386
     17 F          64.1762   83.4065    9.9632 F       1  UNL1       -0.2044
     18 C          63.0072   88.0652   12.4437 C.ar    1  UNL1        0.1350
     19 C          63.9824   89.1329   12.8423 C.ar    1  UNL1        0.0535
     20 C          63.7183   90.5638   12.4780 C.ar    1  UNL1        0.0858
     21 N          62.4789   90.9270   11.7152 N.ar    1  UNL1       -0.2239
     22 C          61.5036   89.8594   11.3166 C.ar    1  UNL1        0.2000
     23 N          61.7678   88.4285   11.6808 N.ar    1  UNL1       -0.2090
     24 C          64.6936   91.6315   12.8766 C.ar    1  UNL1        0.0178
     25 C          65.2714   91.6407   14.2608 C.ar    1  UNL1        0.0015
     26 C          66.2466   92.7083   14.6595 C.ar    1  UNL1        0.0001
     27 C          66.6441   93.7670   13.6738 C.ar    1  UNL1        0.0011
     28 C          66.0663   93.7578   12.2896 C.ar    1  UNL1        0.0140
     29 C          65.0911   92.6901   11.8910 C.ar    1  UNL1        0.0026
     30 C          66.4638   94.8164   11.3040 C.2     1  UNL1        0.0729
     31 O          65.7344   96.1268   11.2758 O.co2   1  UNL1       -0.5446
     32 O          67.5907   94.5645   10.3466 O.co2   1  UNL1       -0.5446
@<TRIPOS>UNITY_ATOM_ATTR
31 1
charge -1
@<TRIPOS>BOND
     1     1     2    1
     2     2     3    1
     3     3     4    1
     4     4    18    1
     5    18    19   ar
     6    19    20   ar
     7    20    24    1
     8    24    25   ar
     9    25    26   ar
    10    26    27   ar
    11    27    28   ar
    12    28    30    1
    13    30    31   ar
    14    30    32   ar
    15    28    29   ar
    16    20    21   ar
    17    21    22   ar
    18    22    23   ar
    19     4     5    1
    20     5     6    1
    21     6     9    1
    22     9    10   ar
    23    10    11   ar
    24    11    12    1
    25    11    13   ar
    26    13    14    1
    27    13    15   ar
    28    15    16   ar
    29    16    17    1
    30     6     2    1
    31    16     9   ar
    32    23    18   ar
    33    29    24   ar
    34     1     7    1
    35     1     8    1
@<TRIPOS>MOLECULE
*****
 32 35 0 0 0
SMALL
GASTEIGER

@<TRIPOS>ATOM
      1 N          65.2687   93.6016   11.4160 N.3     1  UNL1       -0.3205
      2 C          64.7805   92.2608   11.8787 C.3     1  UNL1        0.0766
      3 C          63.6983   91.4462   11.2346 C.3     1  UNL1        0.1079
      4 N          63.5377   90.1812   12.0246 N.pl3   1  UNL1       -0.2914
      5 C          64.5208   90.2141   13.1570 C.3     1  UNL1        0.0980
      6 C          65.2889   91.4993   13.0669 C.3     1  UNL1        0.0602
      7 H          64.7491   93.8844   10.5851 H       1  UNL1        0.1189
      8 H          66.2621   93.5430   11.1923 H       1  UNL1        0.1189
      9 C          66.3747   91.9449   14.0010 C.ar    1  UNL1        0.0103
     10 C          67.7976   91.9923   13.5287 C.ar    1  UNL1        0.0300
     11 C          68.8834   92.4379   14.4628 C.ar    1  UNL1        0.1672
     12 F          70.3063   92.4853   13.9905 F       1  UNL1       -0.2018
     13 C          68.5463   92.8360   15.8691 C.ar    1  UNL1        0.1696
     14 F          69.6321   93.2816   16.8032 F       1  UNL1       -0.2017
     15 C          67.1233   92.7886   16.3414 C.ar    1  UNL1        0.0612
     16 C          66.0376   92.3430   15.4074 C.ar    1  UNL1        0.1386
     17 F          64.6146   92.2956   15.8797 F       1  UNL1       -0.2044
     18 C          62.5649   89.0772   11.7332 C.ar    1  UNL1        0.1350
     19 C          63.0209   87.6485   11.7628 C.ar    1  UNL1        0.0535
     20 C          62.0481   86.5446   11.4715 C.ar    1  UNL1        0.0858
     21 N          60.6192   86.8693   11.1506 N.ar    1  UNL1       -0.2239
     22 C          60.1632   88.2980   11.1210 C.ar    1  UNL1        0.2000
     23 N          61.1361   89.4019   11.4123 N.ar    1  UNL1       -0.2090
     24 C          62.5041   85.1158   11.5011 C.ar    1  UNL1        0.0178
     25 C          63.0575   84.4794   10.2607 C.ar    1  UNL1        0.0015
     26 C          63.5135   83.0507   10.2902 C.ar    1  UNL1        0.0001
     27 C          63.4160   82.2584   11.5602 C.ar    1  UNL1        0.0011
     28 C          62.8626   82.8949   12.8006 C.ar    1  UNL1        0.0140
     29 C          62.4066   84.3236   12.7711 C.ar    1  UNL1        0.0026
     30 C          62.7651   82.1026   14.0706 C.2     1  UNL1        0.0729
     31 O          61.7773   80.9791   14.1798 O.co2   1  UNL1       -0.5446
     32 O          63.6554   82.4339   15.2314 O.co2   1  UNL1       -0.5446
@<TRIPOS>UNITY_ATOM_ATTR
31 1
charge -1
@<TRIPOS>BOND
     1     1     2    1
     2     2     3    1
     3     3     4    1
     4     4    18    1
     5    18    19   ar
     6    19    20   ar
     7    20    24    1
     8    24    25   ar
     9    25    26   ar
    10    26    27   ar
    11    27    28   ar
    12    28    30    1
    13    30    31   ar
    14    30    32   ar
    15    28    29   ar
    16    20    21   ar
    17    21    22   ar
    18    22    23   ar
    19     4     5    1
    20     5     6    1
    21     6     9    1
    22     9    10   ar
    23    10    11   ar
    24    11    12    1
    25    11    13   ar
    26    13    14    1
    27    13    15   ar
    28    15    16   ar
    29    16    17    1
    30     6     2    1
    31    16     9   ar
    32    23    18   ar
    33    29    24   ar
    34     1     7    1
    35     1     8    1
@<TRIPOS>MOLECULE
*****
 32 35 0 0 0
SMALL
GASTEIGER

@<TRIPOS>ATOM
      1 N          65.8380   92.8372   13.7957 N.3     1  UNL1       -0.3205
      2 C          65.0294   92.0619   12.7982 C.3     1  UNL1        0.0766
      3 C          64.0928   90.9324   13.1095 C.3     1  UNL1        0.1079
      4 N          63.4999   90.4525   11.8179 N.pl3   1  UNL1       -0.2914
      5 C          64.0702   91.2853   10.7083 C.3     1  UNL1        0.0980
      6 C          65.0155   92.2800   11.3142 C.3     1  UNL1        0.0602
      7 H          65.6557   92.4790   14.7332 H       1  UNL1        0.1189
      8 H          65.5782   93.8226   13.7518 H       1  UNL1        0.1189
      9 C          65.8077   93.3117   10.5672 C.ar    1  UNL1        0.0103
     10 C          65.1402   94.5651   10.0842 C.ar    1  UNL1        0.0300
     11 C          65.9324   95.5968    9.3372 C.ar    1  UNL1        0.1672
     12 F          65.2649   96.8502    8.8543 F       1  UNL1       -0.2018
     13 C          67.3922   95.3750    9.0732 C.ar    1  UNL1        0.1696
     14 F          68.1844   96.4067    8.3262 F       1  UNL1       -0.2017
     15 C          68.0598   94.1215    9.5561 C.ar    1  UNL1        0.0612
     16 C          67.2676   93.0899   10.3031 C.ar    1  UNL1        0.1386
     17 F          67.9351   91.8364   10.7861 F       1  UNL1       -0.2044
     18 C          62.5105   89.3357   11.6631 C.ar    1  UNL1        0.1350
     19 C          62.9772   87.9105   11.6944 C.ar    1  UNL1        0.0535
     20 C          61.9878   86.7938   11.5396 C.ar    1  UNL1        0.0858
     21 N          60.5317   87.1023   11.3534 N.ar    1  UNL1       -0.2239
     22 C          60.0650   88.5275   11.3221 C.ar    1  UNL1        0.2000
     23 N          61.0544   89.6442   11.4769 N.ar    1  UNL1       -0.2090
     24 C          62.4545   85.3685   11.5709 C.ar    1  UNL1        0.0178
     25 C          63.0430   84.7449   10.3401 C.ar    1  UNL1        0.0015
     26 C          63.5097   83.3197   10.3714 C.ar    1  UNL1        0.0001
     27 C          63.3878   82.5181   11.6334 C.ar    1  UNL1        0.0011
     28 C          62.7992   83.1417   12.8641 C.ar    1  UNL1        0.0140
     29 C          62.3326   84.5670   12.8328 C.ar    1  UNL1        0.0026
     30 C          62.6773   82.3402   14.1261 C.2     1  UNL1        0.0729
     31 O          61.4245   81.5632   14.4031 O.co2   1  UNL1       -0.5446
     32 O          63.8083   82.3156   15.1112 O.co2   1  UNL1       -0.5446
@<TRIPOS>UNITY_ATOM_ATTR
31 1
charge -1
@<TRIPOS>BOND
     1     1     2    1
     2     2     3    1
     3     3     4    1
     4     4    18    1
     5    18    19   ar
     6    19    20   ar
     7    20    24    1
     8    24    25   ar
     9    25    26   ar
    10    26    27   ar
    11    27    28   ar
    12    28    30    1
    13    30    31   ar
    14    30    32   ar
    15    28    29   ar
    16    20    21   ar
    17    21    22   ar
    18    22    23   ar
    19     4     5    1
    20     5     6    1
    21     6     9    1
    22     9    10   ar
    23    10    11   ar
    24    11    12    1
    25    11    13   ar
    26    13    14    1
    27    13    15   ar
    28    15    16   ar
    29    16    17    1
    30     6     2    1
    31    16     9   ar
    32    23    18   ar
    33    29    24   ar
    34     1     7    1
    35     1     8    1
@<TRIPOS>MOLECULE
*****
 32 35 0 0 0
SMALL
GASTEIGER

@<TRIPOS>ATOM
      1 N          64.4874   83.7773   14.9999 N.3     1  UNL1       -0.3205
      2 C          63.9131   84.6583   13.9303 C.3     1  UNL1        0.0766
      3 C          63.8603   86.1571   13.9567 C.3     1  UNL1        0.1079
      4 N          63.2053   86.6202   12.6892 N.pl3   1  UNL1       -0.2914
      5 C          62.8534   85.4077   11.8794 C.3     1  UNL1        0.0980
      6 C          63.2908   84.1951   12.6464 C.3     1  UNL1        0.0602
      7 H          64.8432   84.3550   15.7615 H       1  UNL1        0.1189
      8 H          65.2489   83.2217   14.6102 H       1  UNL1        0.1189
      9 C          63.1335   82.7696   12.2068 C.ar    1  UNL1        0.0103
     10 C          62.5543   81.7544   13.1468 C.ar    1  UNL1        0.0300
     11 C          62.3970   80.3289   12.7072 C.ar    1  UNL1        0.1672
     12 F          61.8177   79.3137   13.6472 F       1  UNL1       -0.2018
     13 C          62.8190   79.9187   11.3275 C.ar    1  UNL1        0.1696
     14 F          62.6618   78.4932   10.8879 F       1  UNL1       -0.2017
     15 C          63.3983   80.9339   10.3874 C.ar    1  UNL1        0.0612
     16 C          63.5556   82.3593   10.8271 C.ar    1  UNL1        0.1386
     17 F          64.1349   83.3747    9.8870 F       1  UNL1       -0.2044
     18 C          62.9476   88.0458   12.2998 C.ar    1  UNL1        0.1350
     19 C          63.9163   89.1192   12.6990 C.ar    1  UNL1        0.0535
     20 C          63.6586   90.5446   12.3097 C.ar    1  UNL1        0.0858
     21 N          62.4321   90.8967   11.5211 N.ar    1  UNL1       -0.2239
     22 C          61.4634   89.8233   11.1219 C.ar    1  UNL1        0.2000
     23 N          61.7211   88.3978   11.5113 N.ar    1  UNL1       -0.2090
     24 C          64.6273   91.6181   12.7089 C.ar    1  UNL1        0.0178
     25 C          65.0497   92.6558   11.7115 C.ar    1  UNL1        0.0015
     26 C          66.0184   93.7292   12.1106 C.ar    1  UNL1        0.0001
     27 C          66.5647   93.7650   13.5072 C.ar    1  UNL1        0.0011
     28 C          66.1423   92.7272   14.5046 C.ar    1  UNL1        0.0140
     29 C          65.1736   91.6538   14.1054 C.ar    1  UNL1        0.0026
     30 C          66.6886   92.7630   15.9011 C.2     1  UNL1        0.0729
     31 O          65.7555   92.6930   17.0734 O.co2   1  UNL1       -0.5446
     32 O          68.1680   92.8686   16.1252 O.co2   1  UNL1       -0.5446
@<TRIPOS>UNITY_ATOM_ATTR
31 1
charge -1
@<TRIPOS>BOND
     1     1     2    1
     2     2     3    1
     3     3     4    1
     4     4    18    1
     5    18    19   ar
     6    19    20   ar
     7    20    24    1
     8    24    25   ar
     9    25    26   ar
    10    26    27   ar
    11    27    28   ar
    12    28    30    1
    13    30    31   ar
    14    30    32   ar
    15    28    29   ar
    16    20    21   ar
    17    21    22   ar
    18    22    23   ar
    19     4     5    1
    20     5     6    1
    21     6     9    1
    22     9    10   ar
    23    10    11   ar
    24    11    12    1
    25    11    13   ar
    26    13    14    1
    27    13    15   ar
    28    15    16   ar
    29    16    17    1
    30     6     2    1
    31    16     9   ar
    32    23    18   ar
    33    29    24   ar
    34     1     7    1
    35     1     8    1
@<TRIPOS>MOLECULE
*****
 32 35 0 0 0
SMALL
GASTEIGER

@<TRIPOS>ATOM
      1 N          63.6250   91.9792   16.5978 N.3     1  UNL1       -0.3205
      2 C          63.8000   90.6724   15.8826 C.3     1  UNL1        0.0766
      3 C          63.3225   89.3338   16.3624 C.3     1  UNL1        0.1079
      4 N          63.7107   88.3088   15.3383 N.pl3   1  UNL1       -0.2914
      5 C          64.4282   89.0138   14.2256 C.3     1  UNL1        0.0980
      6 C          64.4834   90.4746   14.5620 C.3     1  UNL1        0.0602
      7 H          63.1253   91.8234   17.4732 H       1  UNL1        0.1189
      8 H          63.0904   92.6193   16.0104 H       1  UNL1        0.1189
      9 C          65.1117   91.5490   13.7247 C.ar    1  UNL1        0.0103
     10 C          64.6614   91.7561   12.3090 C.ar    1  UNL1        0.0300
     11 C          65.2897   92.8305   11.4717 C.ar    1  UNL1        0.1672
     12 F          64.8394   93.0377   10.0560 F       1  UNL1       -0.2018
     13 C          66.3682   93.6977   12.0502 C.ar    1  UNL1        0.1696
     14 F          66.9965   94.7721   11.2130 F       1  UNL1       -0.2017
     15 C          66.8185   93.4906   13.4661 C.ar    1  UNL1        0.0612
     16 C          66.1902   92.4162   14.3032 C.ar    1  UNL1        0.1386
     17 F          66.6405   92.2090   15.7190 F       1  UNL1       -0.2044
     18 C          63.4306   86.8370   15.4138 C.ar    1  UNL1        0.1350
     19 C          63.5575   85.9855   14.1855 C.ar    1  UNL1        0.0535
     20 C          63.2774   84.5138   14.2610 C.ar    1  UNL1        0.0858
     21 N          62.8703   83.8938   15.5648 N.ar    1  UNL1       -0.2239
     22 C          62.7434   84.7453   16.7930 C.ar    1  UNL1        0.2000
     23 N          63.0235   86.2170   16.7175 N.ar    1  UNL1       -0.2090
     24 C          63.4043   83.6622   13.0327 C.ar    1  UNL1        0.0178
     25 C          63.9452   84.2518   11.7639 C.ar    1  UNL1        0.0015
     26 C          64.0721   83.4002   10.5356 C.ar    1  UNL1        0.0001
     27 C          63.6581   81.9590   10.5761 C.ar    1  UNL1        0.0011
     28 C          63.1172   81.3694   11.8449 C.ar    1  UNL1        0.0140
     29 C          62.9903   82.2211   13.0732 C.ar    1  UNL1        0.0026
     30 C          62.7032   79.9283   11.8854 C.2     1  UNL1        0.0729
     31 O          62.2204   79.3225   13.1699 O.co2   1  UNL1       -0.5446
     32 O          62.7720   79.0930   10.6414 O.co2   1  UNL1       -0.5446
@<TRIPOS>UNITY_ATOM_ATTR
31 1
charge -1
@<TRIPOS>BOND
     1     1     2    1
     2     2     3    1
     3     3     4    1
     4     4    18    1
     5    18    19   ar
     6    19    20   ar
     7    20    24    1
     8    24    25   ar
     9    25    26   ar
    10    26    27   ar
    11    27    28   ar
    12    28    30    1
    13    30    31   ar
    14    30    32   ar
    15    28    29   ar
    16    20    21   ar
    17    21    22   ar
    18    22    23   ar
    19     4     5    1
    20     5     6    1
    21     6     9    1
    22     9    10   ar
    23    10    11   ar
    24    11    12    1
    25    11    13   ar
    26    13    14    1
    27    13    15   ar
    28    15    16   ar
    29    16    17    1
    30     6     2    1
    31    16     9   ar
    32    23    18   ar
    33    29    24   ar
    34     1     7    1
    35     1     8    1
@<TRIPOS>MOLECULE
*****
 32 35 0 0 0
SMALL
GASTEIGER

@<TRIPOS>ATOM
      1 N          68.5598   93.1102   14.1799 N.3     1  UNL1       -0.3205
      2 C          67.3059   92.3075   13.9974 C.3     1  UNL1        0.0766
      3 C          66.7431   91.3172   14.9733 C.3     1  UNL1        0.1079
      4 N          65.4839   90.7519   14.3859 N.pl3   1  UNL1       -0.2914
      5 C          65.2685   91.3928   13.0470 C.3     1  UNL1        0.0980
      6 C          66.3945   92.3543   12.8068 C.3     1  UNL1        0.0602
      7 H          68.9822   92.8812   15.0797 H       1  UNL1        0.1189
      8 H          68.3339   94.1045   14.1536 H       1  UNL1        0.1189
      9 C          66.5772   93.2119   11.5898 C.ar    1  UNL1        0.0103
     10 C          65.8454   94.5162   11.4747 C.ar    1  UNL1        0.0300
     11 C          66.0280   95.3738   10.2577 C.ar    1  UNL1        0.1672
     12 F          65.2963   96.6781   10.1426 F       1  UNL1       -0.2018
     13 C          66.9424   94.9271    9.1559 C.ar    1  UNL1        0.1696
     14 F          67.1251   95.7848    7.9388 F       1  UNL1       -0.2017
     15 C          67.6743   93.6228    9.2709 C.ar    1  UNL1        0.0612
     16 C          67.4916   92.7652   10.4879 C.ar    1  UNL1        0.1386
     17 F          68.2234   91.4608   10.6030 F       1  UNL1       -0.2044
     18 C          64.5960   89.7257   15.0253 C.ar    1  UNL1        0.1350
     19 C          64.6486   88.2984   14.5673 C.ar    1  UNL1        0.0535
     20 C          63.7608   87.2723   15.2066 C.ar    1  UNL1        0.0858
     21 N          62.8203   87.6736   16.3041 N.ar    1  UNL1       -0.2239
     22 C          62.7676   89.1009   16.7622 C.ar    1  UNL1        0.2000
     23 N          63.6555   90.1270   16.1228 N.ar    1  UNL1       -0.2090
     24 C          63.8134   85.8449   14.7486 C.ar    1  UNL1        0.0178
     25 C          63.8735   84.7355   15.7564 C.ar    1  UNL1        0.0015
     26 C          63.9261   83.3082   15.2984 C.ar    1  UNL1        0.0001
     27 C          63.9186   82.9901   13.8325 C.ar    1  UNL1        0.0011
     28 C          63.8585   84.0994   12.8246 C.ar    1  UNL1        0.0140
     29 C          63.8059   85.5269   13.2827 C.ar    1  UNL1        0.0026
     30 C          63.8510   83.7814   11.3588 C.2     1  UNL1        0.0729
     31 O          64.7657   82.7236   10.8162 O.co2   1  UNL1       -0.5446
     32 O          62.9289   84.5212   10.4356 O.co2   1  UNL1       -0.5446
@<TRIPOS>UNITY_ATOM_ATTR
31 1
charge -1
@<TRIPOS>BOND
     1     1     2    1
     2     2     3    1
     3     3     4    1
     4     4    18    1
     5    18    19   ar
     6    19    20   ar
     7    20    24    1
     8    24    25   ar
     9    25    26   ar
    10    26    27   ar
    11    27    28   ar
    12    28    30    1
    13    30    31   ar
    14    30    32   ar
    15    28    29   ar
    16    20    21   ar
    17    21    22   ar
    18    22    23   ar
    19     4     5    1
    20     5     6    1
    21     6     9    1
    22     9    10   ar
    23    10    11   ar
    24    11    12    1
    25    11    13   ar
    26    13    14    1
    27    13    15   ar
    28    15    16   ar
    29    16    17    1
    30     6     2    1
    31    16     9   ar
    32    23    18   ar
    33    29    24   ar
    34     1     7    1
    35     1     8    1
@<TRIPOS>MOLECULE
*****
 32 35 0 0 0
SMALL
GASTEIGER

@<TRIPOS>ATOM
      1 N          64.6621   93.3818   10.6813 N.3     1  UNL1       -0.3205
      2 C          64.2263   92.0150   11.1195 C.3     1  UNL1        0.0766
      3 C          63.3230   91.0911   10.3575 C.3     1  UNL1        0.1079
      4 N          63.1556   89.8373   11.1637 N.pl3   1  UNL1       -0.2914
      5 C          63.9555   89.9862   12.4238 C.3     1  UNL1        0.0980
      6 C          64.6172   91.3321   12.3966 C.3     1  UNL1        0.0602
      7 H          64.2481   93.5961    9.7741 H       1  UNL1        0.1189
      8 H          65.6790   93.4063   10.6053 H       1  UNL1        0.1189
      9 C          65.5125   91.8961   13.4597 C.ar    1  UNL1        0.0103
     10 C          65.0196   92.0118   14.8716 C.ar    1  UNL1        0.0300
     11 C          65.9150   92.5758   15.9348 C.ar    1  UNL1        0.1672
     12 F          65.4221   92.6915   17.3467 F       1  UNL1       -0.2018
     13 C          67.3033   93.0240   15.5859 C.ar    1  UNL1        0.1696
     14 F          68.1986   93.5880   16.6490 F       1  UNL1       -0.2017
     15 C          67.7962   92.9083   14.1739 C.ar    1  UNL1        0.0612
     16 C          66.9008   92.3444   13.1109 C.ar    1  UNL1        0.1386
     17 F          67.3937   92.2286   11.6988 F       1  UNL1       -0.2044
     18 C          62.3329   88.6440   10.7774 C.ar    1  UNL1        0.1350
     19 C          62.8230   87.2616   11.0913 C.ar    1  UNL1        0.0535
     20 C          62.0003   86.0684   10.7051 C.ar    1  UNL1        0.0858
     21 N          60.6873   86.2576   10.0048 N.ar    1  UNL1       -0.2239
     22 C          60.1971   87.6400    9.6909 C.ar    1  UNL1        0.2000
     23 N          61.0199   88.8332   10.0771 N.ar    1  UNL1       -0.2090
     24 C          62.4905   84.6859   11.0190 C.ar    1  UNL1        0.0178
     25 C          63.2706   83.9162    9.9948 C.ar    1  UNL1        0.0015
     26 C          63.7608   82.5337   10.3087 C.ar    1  UNL1        0.0001
     27 C          63.4708   81.9209   11.6468 C.ar    1  UNL1        0.0011
     28 C          62.6906   82.6906   12.6710 C.ar    1  UNL1        0.0140
     29 C          62.2005   84.0731   12.3571 C.ar    1  UNL1        0.0026
     30 C          62.4006   82.0779   14.0090 C.2     1  UNL1        0.0729
     31 O          63.0639   82.6184   15.2411 O.co2   1  UNL1       -0.5446
     32 O          61.4473   80.9247   14.1151 O.co2   1  UNL1       -0.5446
@<TRIPOS>UNITY_ATOM_ATTR
31 1
charge -1
@<TRIPOS>BOND
     1     1     2    1
     2     2     3    1
     3     3     4    1
     4     4    18    1
     5    18    19   ar
     6    19    20   ar
     7    20    24    1
     8    24    25   ar
     9    25    26   ar
    10    26    27   ar
    11    27    28   ar
    12    28    30    1
    13    30    31   ar
    14    30    32   ar
    15    28    29   ar
    16    20    21   ar
    17    21    22   ar
    18    22    23   ar
    19     4     5    1
    20     5     6    1
    21     6     9    1
    22     9    10   ar
    23    10    11   ar
    24    11    12    1
    25    11    13   ar
    26    13    14    1
    27    13    15   ar
    28    15    16   ar
    29    16    17    1
    30     6     2    1
    31    16     9   ar
    32    23    18   ar
    33    29    24   ar
    34     1     7    1
    35     1     8    1
@<TRIPOS>MOLECULE
*****
 32 35 0 0 0
SMALL
GASTEIGER

@<TRIPOS>ATOM
      1 N          64.3420   82.7954   15.9885 N.3     1  UNL1       -0.3205
      2 C          64.0592   84.0589   15.2313 C.3     1  UNL1        0.0766
      3 C          64.1319   85.4521   15.7824 C.3     1  UNL1        0.1079
      4 N          63.7717   86.4054   14.6817 N.pl3   1  UNL1       -0.2914
      5 C          63.4764   85.6014   13.4503 C.3     1  UNL1        0.0980
      6 C          63.6540   84.1512   13.7899 C.3     1  UNL1        0.0602
      7 H          64.5954   83.0244   16.9496 H       1  UNL1        0.1189
      8 H          65.1127   82.2973   15.5431 H       1  UNL1        0.1189
      9 C          63.4605   82.9960   12.8528 C.ar    1  UNL1        0.0103
     10 C          62.8965   81.7030   13.3626 C.ar    1  UNL1        0.0300
     11 C          62.7030   80.5479   12.4255 C.ar    1  UNL1        0.1672
     12 F          62.1390   79.2548   12.9354 F       1  UNL1       -0.2018
     13 C          63.0735   80.6858   10.9786 C.ar    1  UNL1        0.1696
     14 F          62.8800   79.5306   10.0415 F       1  UNL1       -0.2017
     15 C          63.6375   81.9789   10.4687 C.ar    1  UNL1        0.0612
     16 C          63.8310   83.1339   11.4058 C.ar    1  UNL1        0.1386
     17 F          64.3950   84.4271   10.8960 F       1  UNL1       -0.2044
     18 C          63.7165   87.9003   14.7929 C.ar    1  UNL1        0.1350
     19 C          63.9183   88.7510   13.5740 C.ar    1  UNL1        0.0535
     20 C          63.8631   90.2458   13.6853 C.ar    1  UNL1        0.0858
     21 N          63.6062   90.8900   15.0153 N.ar    1  UNL1       -0.2239
     22 C          63.4044   90.0393   16.2342 C.ar    1  UNL1        0.2000
     23 N          63.4596   88.5445   16.1229 N.ar    1  UNL1       -0.2090
     24 C          64.0649   91.0966   12.4664 C.ar    1  UNL1        0.0178
     25 C          63.1758   90.9180   11.2716 C.ar    1  UNL1        0.0015
     26 C          63.3775   91.7687   10.0528 C.ar    1  UNL1        0.0001
     27 C          64.4684   92.7981   10.0287 C.ar    1  UNL1        0.0011
     28 C          65.3575   92.9767   11.2236 C.ar    1  UNL1        0.0140
     29 C          65.1557   92.1259   12.4424 C.ar    1  UNL1        0.0026
     30 C          66.4483   94.0060   11.1996 C.2     1  UNL1        0.0729
     31 O          67.7569   93.6966   10.5350 O.co2   1  UNL1       -0.5446
     32 O          66.2304   95.3447   11.8402 O.co2   1  UNL1       -0.5446
@<TRIPOS>UNITY_ATOM_ATTR
31 1
charge -1
@<TRIPOS>BOND
     1     1     2    1
     2     2     3    1
     3     3     4    1
     4     4    18    1
     5    18    19   ar
     6    19    20   ar
     7    20    24    1
     8    24    25   ar
     9    25    26   ar
    10    26    27   ar
    11    27    28   ar
    12    28    30    1
    13    30    31   ar
    14    30    32   ar
    15    28    29   ar
    16    20    21   ar
    17    21    22   ar
    18    22    23   ar
    19     4     5    1
    20     5     6    1
    21     6     9    1
    22     9    10   ar
    23    10    11   ar
    24    11    12    1
    25    11    13   ar
    26    13    14    1
    27    13    15   ar
    28    15    16   ar
    29    16    17    1
    30     6     2    1
    31    16     9   ar
    32    23    18   ar
    33    29    24   ar
    34     1     7    1
    35     1     8    1
@<TRIPOS>MOLECULE
*****
 32 35 0 0 0
SMALL
GASTEIGER

@<TRIPOS>ATOM
      1 N          64.6008   82.6484   15.8984 N.3     1  UNL1       -0.3205
      2 C          64.2481   83.9975   15.3455 C.3     1  UNL1        0.0766
      3 C          64.3090   85.2986   16.0895 C.3     1  UNL1        0.1079
      4 N          63.8712   86.3876   15.1554 N.pl3   1  UNL1       -0.2914
      5 C          63.5397   85.7595   13.8342 C.3     1  UNL1        0.0980
      6 C          63.7727   84.2824   13.9516 C.3     1  UNL1        0.0602
      7 H          64.8932   82.7453   16.8707 H       1  UNL1        0.1189
      8 H          65.3627   82.2460   15.3527 H       1  UNL1        0.1189
      9 C          63.5664   83.2682   12.8659 C.ar    1  UNL1        0.0103
     10 C          64.3222   83.3865   11.5756 C.ar    1  UNL1        0.0300
     11 C          64.1159   82.3723   10.4899 C.ar    1  UNL1        0.1672
     12 F          64.8716   82.4906    9.1996 F       1  UNL1       -0.2018
     13 C          63.1539   81.2398   10.6945 C.ar    1  UNL1        0.1696
     14 F          62.9476   80.2256    9.6087 F       1  UNL1       -0.2017
     15 C          62.3981   81.1214   11.9848 C.ar    1  UNL1        0.0612
     16 C          62.6044   82.1356   13.0704 C.ar    1  UNL1        0.1386
     17 F          61.8486   82.0173   14.3608 F       1  UNL1       -0.2044
     18 C          63.7807   87.8482   15.4848 C.ar    1  UNL1        0.1350
     19 C          64.5634   88.8472   14.6852 C.ar    1  UNL1        0.0535
     20 C          64.4729   90.3078   15.0146 C.ar    1  UNL1        0.0858
     21 N          63.5998   90.7693   16.1436 N.ar    1  UNL1       -0.2239
     22 C          62.8171   89.7703   16.9431 C.ar    1  UNL1        0.2000
     23 N          62.9076   88.3098   16.6137 N.ar    1  UNL1       -0.2090
     24 C          65.2557   91.3069   14.2150 C.ar    1  UNL1        0.0178
     25 C          66.4357   91.9999   14.8292 C.ar    1  UNL1        0.0015
     26 C          67.2184   92.9990   14.0297 C.ar    1  UNL1        0.0001
     27 C          66.8211   93.3050   12.6160 C.ar    1  UNL1        0.0011
     28 C          65.6410   92.6120   12.0018 C.ar    1  UNL1        0.0140
     29 C          64.8583   91.6129   12.8014 C.ar    1  UNL1        0.0026
     30 C          65.2436   92.9181   10.5882 C.2     1  UNL1        0.0729
     31 O          64.0321   92.2652    9.9916 O.co2   1  UNL1       -0.5446
     32 O          66.0578   93.8769    9.7712 O.co2   1  UNL1       -0.5446
@<TRIPOS>UNITY_ATOM_ATTR
31 1
charge -1
@<TRIPOS>BOND
     1     1     2    1
     2     2     3    1
     3     3     4    1
     4     4    18    1
     5    18    19   ar
     6    19    20   ar
     7    20    24    1
     8    24    25   ar
     9    25    26   ar
    10    26    27   ar
    11    27    28   ar
    12    28    30    1
    13    30    31   ar
    14    30    32   ar
    15    28    29   ar
    16    20    21   ar
    17    21    22   ar
    18    22    23   ar
    19     4     5    1
    20     5     6    1
    21     6     9    1
    22     9    10   ar
    23    10    11   ar
    24    11    12    1
    25    11    13   ar
    26    13    14    1
    27    13    15   ar
    28    15    16   ar
    29    16    17    1
    30     6     2    1
    31    16     9   ar
    32    23    18   ar
    33    29    24   ar
    34     1     7    1
    35     1     8    1
