@<TRIPOS>MOLECULE
*****
 36 39 0 0 0
SMALL
GASTEIGER

@<TRIPOS>ATOM
      1 C          61.0990   88.3858    9.2903 C.ar    1  UNL1       -0.0024
      2 C          59.8626   88.9385    8.6452 C.ar    1  UNL1       -0.0003
      3 C          58.9333   88.0263    7.9009 C.ar    1  UNL1       -0.0000
      4 C          59.2402   86.5613    7.8017 C.ar    1  UNL1       -0.0003
      5 C          60.4765   86.0087    8.4467 C.ar    1  UNL1       -0.0026
      6 C          61.4059   86.9210    9.1911 C.ar    1  UNL1       -0.0023
      7 C          63.8871   91.1226   11.5233 C.ar    1  UNL1       -0.0061
      8 C          63.3937   89.8631   12.1716 C.ar    1  UNL1       -0.0029
      9 C          62.4643   88.9509   11.4273 C.ar    1  UNL1       -0.0003
     10 C          62.0284   89.2981   10.0346 C.ar    1  UNL1       -0.0003
     11 C          62.5218   90.5575    9.3864 C.ar    1  UNL1       -0.0003
     12 C          63.4512   91.4698   10.1307 C.ar    1  UNL1       -0.0029
     13 C          64.8165   92.0349   12.2676 C.3     1  UNL1        0.0992
     14 C          68.8910   92.4953    9.0760 C.3     1  UNL1        0.0186
     15 C          67.8221   93.1273    9.9175 C.3     1  UNL1        0.0702
     16 C          66.8538   92.2652   10.6718 C.3     1  UNL1        0.0882
     17 N          65.7848   92.8971   11.5132 N.3     1  UNL1       -0.2666
     18 C          65.6842   94.3912   11.6003 C.3     1  UNL1        0.0882
     19 C          66.6525   95.2533   10.8460 C.3     1  UNL1        0.0702
     20 C          66.5519   96.7474   10.9330 C.3     1  UNL1        0.0186
     21 N          67.7215   94.6213   10.0045 N.3     1  UNL1       -0.2974
     22 H          68.6154   94.9562   10.3638 H       1  UNL1        0.1232
     23 C          62.6422   86.3683    9.8361 C.3     1  UNL1        0.1203
     24 N          62.5275   85.3137   10.8966 N.am    1  UNL1       -0.2706
     25 C          61.7300   85.5825   12.1383 C.3     1  UNL1        0.1153
     26 C          63.2101   83.9904   10.7155 C.2     1  UNL1        0.2705
     27 O          64.0076   83.7217    9.4738 O.2     1  UNL1       -0.2708
     28 C          63.0954   82.9359   11.7760 C.3     1  UNL1        0.2896
     29 O          64.0369   82.9409   12.9436 O.3     1  UNL1       -0.4656
     30 C          63.8350   83.9157   14.0658 C.ar    1  UNL1        0.1394
     31 C          64.7342   85.1095   14.1930 C.ar    1  UNL1        0.0392
     32 C          64.5323   86.0843   15.3150 C.ar    1  UNL1        0.0327
     33 C          63.4313   85.8652   16.3099 C.ar    1  UNL1        0.1403
     34 F          63.2294   86.8400   17.4320 F       1  UNL1       -0.2042
     35 C          62.5321   84.6713   16.1826 C.ar    1  UNL1        0.0327
     36 C          62.7340   83.6965   15.0606 C.ar    1  UNL1        0.0392
@<TRIPOS>BOND
     1    15    14    1
     2    15    16    1
     3    16    17    1
     4    17    13    1
     5    13     7    1
     6     7     8   ar
     7     8     9   ar
     8     9    10   ar
     9    10     1    1
    10     1     2   ar
    11     2     3   ar
    12     3     4   ar
    13     4     5   ar
    14     5     6   ar
    15     6    23    1
    16    23    24    1
    17    24    25    1
    18    24    26   am
    19    26    27    2
    20    26    28    1
    21    28    29    1
    22    29    30    1
    23    30    31   ar
    24    31    32   ar
    25    32    33   ar
    26    33    34    1
    27    33    35   ar
    28    35    36   ar
    29    10    11   ar
    30    11    12   ar
    31    17    18    1
    32    18    19    1
    33    19    20    1
    34    19    21    1
    35    21    15    1
    36    12     7   ar
    37     6     1   ar
    38    36    30   ar
    39    21    22    1
@<TRIPOS>MOLECULE
*****
 36 39 0 0 0
SMALL
GASTEIGER

@<TRIPOS>ATOM
      1 C          61.0873   88.3830    9.2841 C.ar    1  UNL1       -0.0024
      2 C          59.8540   88.9421    8.6386 C.ar    1  UNL1       -0.0003
      3 C          58.9237   88.0358    7.8882 C.ar    1  UNL1       -0.0000
      4 C          59.2267   86.5704    7.7833 C.ar    1  UNL1       -0.0003
      5 C          60.4599   86.0114    8.4287 C.ar    1  UNL1       -0.0026
      6 C          61.3902   86.9177    9.1791 C.ar    1  UNL1       -0.0023
      7 C          63.8783   91.1019   11.5354 C.ar    1  UNL1       -0.0061
      8 C          63.4102   91.4790   10.1610 C.ar    1  UNL1       -0.0029
      9 C          62.4799   90.5727    9.4106 C.ar    1  UNL1       -0.0003
     10 C          62.0176   89.2893   10.0345 C.ar    1  UNL1       -0.0003
     11 C          62.4857   88.9122   11.4088 C.ar    1  UNL1       -0.0003
     12 C          63.4160   89.8185   12.1592 C.ar    1  UNL1       -0.0029
     13 C          64.8086   92.0082   12.2858 C.3     1  UNL1        0.0992
     14 C          66.5089   96.7394   10.9726 C.3     1  UNL1        0.0186
     15 C          66.6218   95.2466   10.8804 C.3     1  UNL1        0.0702
     16 C          65.6588   94.3738   11.6292 C.3     1  UNL1        0.0882
     17 N          65.7717   92.8809   11.5369 N.3     1  UNL1       -0.2666
     18 C          66.8477   92.2608   10.6958 C.3     1  UNL1        0.0882
     19 C          67.8108   93.1335    9.9470 C.3     1  UNL1        0.0702
     20 C          68.8869   92.5134    9.1058 C.3     1  UNL1        0.0186
     21 N          67.6978   94.6264   10.0392 N.3     1  UNL1       -0.2974
     22 H          67.5637   94.9709    9.0886 H       1  UNL1        0.1232
     23 C          62.6235   86.3586    9.8246 C.3     1  UNL1        0.1203
     24 N          62.5027   85.3070   10.8874 N.am    1  UNL1       -0.2706
     25 C          61.7032   85.5813   12.1265 C.3     1  UNL1        0.1153
     26 C          63.1816   83.9811   10.7111 C.2     1  UNL1        0.2705
     27 O          63.9811   83.7067    9.4720 O.2     1  UNL1       -0.2708
     28 C          63.0608   82.9295   11.7738 C.3     1  UNL1        0.2896
     29 O          64.0068   82.9275   12.9379 O.3     1  UNL1       -0.4656
     30 C          63.8269   83.9155   14.0522 C.ar    1  UNL1        0.1394
     31 C          62.7564   83.6995   15.0805 C.ar    1  UNL1        0.0392
     32 C          62.5764   84.6874   16.1948 C.ar    1  UNL1        0.0327
     33 C          63.4669   85.8913   16.2807 C.ar    1  UNL1        0.1403
     34 F          63.2869   86.8793   17.3950 F       1  UNL1       -0.2042
     35 C          64.5374   86.1074   15.2524 C.ar    1  UNL1        0.0327
     36 C          64.7173   85.1195   14.1382 C.ar    1  UNL1        0.0392
@<TRIPOS>BOND
     1    15    14    1
     2    15    16    1
     3    16    17    1
     4    17    13    1
     5    13     7    1
     6     7     8   ar
     7     8     9   ar
     8     9    10   ar
     9    10     1    1
    10     1     2   ar
    11     2     3   ar
    12     3     4   ar
    13     4     5   ar
    14     5     6   ar
    15     6    23    1
    16    23    24    1
    17    24    25    1
    18    24    26   am
    19    26    27    2
    20    26    28    1
    21    28    29    1
    22    29    30    1
    23    30    31   ar
    24    31    32   ar
    25    32    33   ar
    26    33    34    1
    27    33    35   ar
    28    35    36   ar
    29    10    11   ar
    30    11    12   ar
    31    17    18    1
    32    18    19    1
    33    19    20    1
    34    19    21    1
    35    21    15    1
    36    12     7   ar
    37     6     1   ar
    38    36    30   ar
    39    21    22    1
@<TRIPOS>MOLECULE
*****
 36 39 0 0 0
SMALL
GASTEIGER

@<TRIPOS>ATOM
      1 C          61.0856   87.7497    9.2761 C.ar    1  UNL1       -0.0024
      2 C          59.7780   88.1539    8.6621 C.ar    1  UNL1       -0.0003
      3 C          59.0797   87.2300    7.7088 C.ar    1  UNL1       -0.0000
      4 C          59.6889   85.9019    7.3695 C.ar    1  UNL1       -0.0003
      5 C          60.9964   85.4978    7.9835 C.ar    1  UNL1       -0.0026
      6 C          61.6948   86.4216    8.9368 C.ar    1  UNL1       -0.0023
      7 C          63.1807   90.5213   12.1359 C.ar    1  UNL1       -0.0061
      8 C          62.5160   91.0719   10.9091 C.ar    1  UNL1       -0.0029
      9 C          61.8177   90.1481    9.9558 C.ar    1  UNL1       -0.0003
     10 C          61.7840   88.6735   10.2294 C.ar    1  UNL1       -0.0003
     11 C          62.4486   88.1230   11.4562 C.ar    1  UNL1       -0.0003
     12 C          63.1470   89.0469   12.4094 C.ar    1  UNL1       -0.0029
     13 C          63.8791   91.4452   13.0892 C.3     1  UNL1        0.0992
     14 C          68.5923   92.1388   15.1640 C.3     1  UNL1        0.0186
     15 C          67.6994   92.0747   13.9604 C.3     1  UNL1        0.0702
     16 C          66.2357   91.7920   14.1266 C.3     1  UNL1        0.0882
     17 N          65.3428   91.7279   12.9230 N.3     1  UNL1       -0.2666
     18 C          65.9136   91.9466   11.5532 C.3     1  UNL1        0.0882
     19 C          67.3773   92.2294   11.3870 C.3     1  UNL1        0.0702
     20 C          67.9481   92.4481   10.0172 C.3     1  UNL1        0.0186
     21 N          68.2702   92.2934   12.5906 N.3     1  UNL1       -0.2974
     22 H          68.6948   93.2208   12.5932 H       1  UNL1        0.1232
     23 C          63.0024   86.0174    9.5507 C.3     1  UNL1        0.1203
     24 N          63.1368   84.6799   10.2163 N.am    1  UNL1       -0.2706
     25 C          63.9144   83.5847    9.5485 C.3     1  UNL1        0.1153
     26 C          62.4936   84.4376   11.5495 C.2     1  UNL1        0.2705
     27 O          61.7160   85.5327   12.2173 O.2     1  UNL1       -0.2708
     28 C          62.6280   83.1001   12.2151 C.3     1  UNL1        0.2896
     29 O          63.4007   82.9732   13.4944 O.3     1  UNL1       -0.4656
     30 C          63.3785   84.0881   14.4977 C.ar    1  UNL1        0.1394
     31 C          64.4289   85.1580   14.4534 C.ar    1  UNL1        0.0392
     32 C          64.4067   86.2729   15.4566 C.ar    1  UNL1        0.0327
     33 C          63.3342   86.3179   16.5042 C.ar    1  UNL1        0.1403
     34 F          63.3119   87.4328   17.5075 F       1  UNL1       -0.2042
     35 C          62.2838   85.2480   16.5485 C.ar    1  UNL1        0.0327
     36 C          62.3059   84.1331   15.5453 C.ar    1  UNL1        0.0392
@<TRIPOS>BOND
     1    15    14    1
     2    15    16    1
     3    16    17    1
     4    17    13    1
     5    13     7    1
     6     7     8   ar
     7     8     9   ar
     8     9    10   ar
     9    10     1    1
    10     1     2   ar
    11     2     3   ar
    12     3     4   ar
    13     4     5   ar
    14     5     6   ar
    15     6    23    1
    16    23    24    1
    17    24    25    1
    18    24    26   am
    19    26    27    2
    20    26    28    1
    21    28    29    1
    22    29    30    1
    23    30    31   ar
    24    31    32   ar
    25    32    33   ar
    26    33    34    1
    27    33    35   ar
    28    35    36   ar
    29    10    11   ar
    30    11    12   ar
    31    17    18    1
    32    18    19    1
    33    19    20    1
    34    19    21    1
    35    21    15    1
    36    12     7   ar
    37     6     1   ar
    38    36    30   ar
    39    21    22    1
@<TRIPOS>MOLECULE
*****
 36 39 0 0 0
SMALL
GASTEIGER

@<TRIPOS>ATOM
      1 C          61.0453   88.0200    9.2166 C.ar    1  UNL1       -0.0024
      2 C          59.7517   88.4356    8.5810 C.ar    1  UNL1       -0.0003
      3 C          59.0084   87.4778    7.6977 C.ar    1  UNL1       -0.0000
      4 C          59.5586   86.1045    7.4502 C.ar    1  UNL1       -0.0003
      5 C          60.8521   85.6889    8.0858 C.ar    1  UNL1       -0.0026
      6 C          61.5954   86.6467    8.9691 C.ar    1  UNL1       -0.0023
      7 C          63.2754   90.8932   11.8664 C.ar    1  UNL1       -0.0061
      8 C          62.7203   89.6223   12.4380 C.ar    1  UNL1       -0.0029
      9 C          61.9769   88.6645   11.5548 C.ar    1  UNL1       -0.0003
     10 C          61.7887   88.9777   10.0999 C.ar    1  UNL1       -0.0003
     11 C          62.3438   90.2486    9.5283 C.ar    1  UNL1       -0.0003
     12 C          63.0872   91.2063   10.4116 C.ar    1  UNL1       -0.0029
     13 C          64.0188   91.8509   12.7496 C.3     1  UNL1        0.0992
     14 C          68.3510   92.3514    9.9245 C.3     1  UNL1        0.0186
     15 C          67.6801   92.1897   11.2563 C.3     1  UNL1        0.0702
     16 C          66.1850   92.1012   11.3371 C.3     1  UNL1        0.0882
     17 N          65.5141   91.9394   12.6689 N.3     1  UNL1       -0.2666
     18 C          66.3383   91.8662   13.9199 C.3     1  UNL1        0.0882
     19 C          67.8335   91.9547   13.8392 C.3     1  UNL1        0.0702
     20 C          68.6579   91.8815   15.0903 C.3     1  UNL1        0.0186
     21 N          68.5044   92.1165   12.5073 N.3     1  UNL1       -0.2974
     22 H          69.1362   91.3232   12.3977 H       1  UNL1        0.1232
     23 C          62.8890   86.2310    9.6047 C.3     1  UNL1        0.1203
     24 N          63.0435   84.8434   10.1530 N.am    1  UNL1       -0.2706
     25 C          63.7500   83.7933    9.3480 C.3     1  UNL1        0.1153
     26 C          62.4914   84.5059   11.5062 C.2     1  UNL1        0.2705
     27 O          61.7848   85.5559   12.3112 O.2     1  UNL1       -0.2708
     28 C          62.6458   83.1182   12.0545 C.3     1  UNL1        0.2896
     29 O          63.3464   82.9025   13.3631 O.3     1  UNL1       -0.4656
     30 C          63.3608   83.9916   14.3946 C.ar    1  UNL1        0.1394
     31 C          64.4557   85.0169   14.3874 C.ar    1  UNL1        0.0392
     32 C          64.4702   86.1059   15.4188 C.ar    1  UNL1        0.0327
     33 C          63.3897   86.1697   16.4573 C.ar    1  UNL1        0.1403
     34 F          63.4042   87.2587   17.4887 F       1  UNL1       -0.2042
     35 C          62.2949   85.1444   16.4645 C.ar    1  UNL1        0.0327
     36 C          62.2804   84.0554   15.4331 C.ar    1  UNL1        0.0392
@<TRIPOS>BOND
     1    15    14    1
     2    15    16    1
     3    16    17    1
     4    17    13    1
     5    13     7    1
     6     7     8   ar
     7     8     9   ar
     8     9    10   ar
     9    10     1    1
    10     1     2   ar
    11     2     3   ar
    12     3     4   ar
    13     4     5   ar
    14     5     6   ar
    15     6    23    1
    16    23    24    1
    17    24    25    1
    18    24    26   am
    19    26    27    2
    20    26    28    1
    21    28    29    1
    22    29    30    1
    23    30    31   ar
    24    31    32   ar
    25    32    33   ar
    26    33    34    1
    27    33    35   ar
    28    35    36   ar
    29    10    11   ar
    30    11    12   ar
    31    17    18    1
    32    18    19    1
    33    19    20    1
    34    19    21    1
    35    21    15    1
    36    12     7   ar
    37     6     1   ar
    38    36    30   ar
    39    21    22    1
@<TRIPOS>MOLECULE
*****
 36 39 0 0 0
SMALL
GASTEIGER

@<TRIPOS>ATOM
      1 C          64.6528   89.8696   14.1769 C.ar    1  UNL1       -0.0024
      2 C          66.0150   90.3955   14.5207 C.ar    1  UNL1       -0.0003
      3 C          66.4366   91.7539   14.0443 C.ar    1  UNL1       -0.0000
      4 C          65.4962   92.5864   13.2242 C.ar    1  UNL1       -0.0003
      5 C          64.1341   92.0605   12.8805 C.ar    1  UNL1       -0.0026
      6 C          63.7125   90.7021   13.3568 C.ar    1  UNL1       -0.0023
      7 C          63.3878   85.7944   15.6061 C.ar    1  UNL1       -0.0061
      8 C          63.3054   86.9725   16.5310 C.ar    1  UNL1       -0.0029
      9 C          63.7271   88.3309   16.0546 C.ar    1  UNL1       -0.0003
     10 C          64.2312   88.5112   14.6533 C.ar    1  UNL1       -0.0003
     11 C          64.3135   87.3331   13.7285 C.ar    1  UNL1       -0.0003
     12 C          63.8919   85.9747   14.2049 C.ar    1  UNL1       -0.0029
     13 C          62.9661   84.4360   16.0825 C.3     1  UNL1        0.0992
     14 C          64.9291   81.5861   12.2063 C.3     1  UNL1        0.0186
     15 C          63.8153   81.8811   13.1668 C.3     1  UNL1        0.0702
     16 C          63.9476   83.0110   14.1444 C.3     1  UNL1        0.0882
     17 N          62.8338   83.3060   15.1048 N.3     1  UNL1       -0.2666
     18 C          61.5878   82.4711   15.0876 C.3     1  UNL1        0.0882
     19 C          61.4555   81.3412   14.1100 C.3     1  UNL1        0.0702
     20 C          60.2095   80.5063   14.0928 C.3     1  UNL1        0.0186
     21 N          62.5693   81.0462   13.1496 N.3     1  UNL1       -0.2974
     22 H          62.1768   81.1223   12.2112 H       1  UNL1        0.1232
     23 C          62.3503   90.1762   13.0131 C.3     1  UNL1        0.1203
     24 N          62.0268   89.8002   11.5975 N.am    1  UNL1       -0.2706
     25 C          63.0263   90.0516   10.5076 C.3     1  UNL1        0.1153
     26 C          60.7038   89.1728   11.2717 C.2     1  UNL1        0.2705
     27 O          59.7043   88.9215   12.3616 O.2     1  UNL1       -0.2708
     28 C          60.3803   88.7969    9.8561 C.3     1  UNL1        0.2896
     29 O          60.1010   87.3655    9.5054 O.3     1  UNL1       -0.4656
     30 C          61.2054   86.3516    9.5561 C.ar    1  UNL1        0.1394
     31 C          61.9328   85.9716    8.3005 C.ar    1  UNL1        0.0392
     32 C          63.0371   84.9578    8.3511 C.ar    1  UNL1        0.0327
     33 C          63.4141   84.3241    9.6573 C.ar    1  UNL1        0.1403
     34 F          64.5186   83.3103    9.7079 F       1  UNL1       -0.2042
     35 C          62.6868   84.7041   10.9129 C.ar    1  UNL1        0.0327
     36 C          61.5824   85.7179   10.8623 C.ar    1  UNL1        0.0392
@<TRIPOS>BOND
     1    15    14    1
     2    15    16    1
     3    16    17    1
     4    17    13    1
     5    13     7    1
     6     7     8   ar
     7     8     9   ar
     8     9    10   ar
     9    10     1    1
    10     1     2   ar
    11     2     3   ar
    12     3     4   ar
    13     4     5   ar
    14     5     6   ar
    15     6    23    1
    16    23    24    1
    17    24    25    1
    18    24    26   am
    19    26    27    2
    20    26    28    1
    21    28    29    1
    22    29    30    1
    23    30    31   ar
    24    31    32   ar
    25    32    33   ar
    26    33    34    1
    27    33    35   ar
    28    35    36   ar
    29    10    11   ar
    30    11    12   ar
    31    17    18    1
    32    18    19    1
    33    19    20    1
    34    19    21    1
    35    21    15    1
    36    12     7   ar
    37     6     1   ar
    38    36    30   ar
    39    21    22    1
@<TRIPOS>MOLECULE
*****
 36 39 0 0 0
SMALL
GASTEIGER

@<TRIPOS>ATOM
      1 C          63.4389   85.3250   12.5644 C.ar    1  UNL1       -0.0024
      2 C          64.3888   84.2441   12.9881 C.ar    1  UNL1       -0.0003
      3 C          64.2503   82.8608   12.4247 C.ar    1  UNL1       -0.0000
      4 C          63.1621   82.5585   11.4375 C.ar    1  UNL1       -0.0003
      5 C          62.2123   83.6395   11.0138 C.ar    1  UNL1       -0.0026
      6 C          62.3508   85.0227   11.5773 C.ar    1  UNL1       -0.0023
      7 C          63.8543   89.4748   14.2547 C.ar    1  UNL1       -0.0061
      8 C          63.3044   89.2794   12.8728 C.ar    1  UNL1       -0.0029
      9 C          63.1660   87.8961   12.3094 C.ar    1  UNL1       -0.0003
     10 C          63.5774   86.7083   13.1278 C.ar    1  UNL1       -0.0003
     11 C          64.1272   86.9037   14.5097 C.ar    1  UNL1       -0.0003
     12 C          64.2656   88.2869   15.0731 C.ar    1  UNL1       -0.0029
     13 C          63.9927   90.8580   14.8182 C.3     1  UNL1        0.0992
     14 C          66.2775   93.5894   11.0341 C.3     1  UNL1        0.0186
     15 C          66.2453   93.1168   12.4573 C.3     1  UNL1        0.0702
     16 C          65.1351   92.2237   12.9261 C.3     1  UNL1        0.0882
     17 N          65.1030   91.7511   14.3494 N.3     1  UNL1       -0.2666
     18 C          66.1810   92.1717   15.3038 C.3     1  UNL1        0.0882
     19 C          67.2912   93.0648   14.8350 C.3     1  UNL1        0.0702
     20 C          68.3692   93.4853   15.7895 C.3     1  UNL1        0.0186
     21 N          67.3233   93.5373   13.4118 N.3     1  UNL1       -0.2974
     22 H          68.2078   93.2191   13.0157 H       1  UNL1        0.1232
     23 C          61.4009   86.1037   11.1536 C.3     1  UNL1        0.1203
     24 N          61.3086   86.4971    9.7091 N.am    1  UNL1       -0.2706
     25 C          62.2246   85.8693    8.7008 C.3     1  UNL1        0.1153
     26 C          60.3003   87.5183    9.2729 C.2     1  UNL1        0.2705
     27 O          59.3842   88.1462   10.2812 O.2     1  UNL1       -0.2708
     28 C          60.2079   87.9118    7.8284 C.3     1  UNL1        0.2896
     29 O          58.9835   88.6125    7.3187 O.3     1  UNL1       -0.4656
     30 C          59.1177   89.7364    6.3343 C.ar    1  UNL1        0.1394
     31 C          60.4704   90.1153    5.8085 C.ar    1  UNL1        0.0392
     32 C          60.6046   91.2392    4.8241 C.ar    1  UNL1        0.0327
     33 C          59.3861   91.9840    4.3656 C.ar    1  UNL1        0.1403
     34 F          59.5203   93.1079    3.3812 F       1  UNL1       -0.2042
     35 C          58.0334   91.6051    4.8914 C.ar    1  UNL1        0.0327
     36 C          57.8991   90.4813    5.8758 C.ar    1  UNL1        0.0392
@<TRIPOS>BOND
     1    15    14    1
     2    15    16    1
     3    16    17    1
     4    17    13    1
     5    13     7    1
     6     7     8   ar
     7     8     9   ar
     8     9    10   ar
     9    10     1    1
    10     1     2   ar
    11     2     3   ar
    12     3     4   ar
    13     4     5   ar
    14     5     6   ar
    15     6    23    1
    16    23    24    1
    17    24    25    1
    18    24    26   am
    19    26    27    2
    20    26    28    1
    21    28    29    1
    22    29    30    1
    23    30    31   ar
    24    31    32   ar
    25    32    33   ar
    26    33    34    1
    27    33    35   ar
    28    35    36   ar
    29    10    11   ar
    30    11    12   ar
    31    17    18    1
    32    18    19    1
    33    19    20    1
    34    19    21    1
    35    21    15    1
    36    12     7   ar
    37     6     1   ar
    38    36    30   ar
    39    21    22    1
@<TRIPOS>MOLECULE
*****
 36 39 0 0 0
SMALL
GASTEIGER

@<TRIPOS>ATOM
      1 C          63.5171   88.5928   15.4038 C.ar    1  UNL1       -0.0024
      2 C          63.0459   89.1277   16.7237 C.ar    1  UNL1       -0.0003
      3 C          62.9030   88.2062   17.8986 C.ar    1  UNL1       -0.0000
      4 C          63.2313   86.7497   17.7536 C.ar    1  UNL1       -0.0003
      5 C          63.7025   86.2148   16.4338 C.ar    1  UNL1       -0.0026
      6 C          63.8454   87.1364   15.2589 C.ar    1  UNL1       -0.0023
      7 C          63.9457   91.3575   11.8792 C.ar    1  UNL1       -0.0061
      8 C          65.0735   91.2085   12.8571 C.ar    1  UNL1       -0.0029
      9 C          64.9306   90.2869   14.0319 C.ar    1  UNL1       -0.0003
     10 C          63.6600   89.5144   14.2290 C.ar    1  UNL1       -0.0003
     11 C          62.5323   89.6633   13.2511 C.ar    1  UNL1       -0.0003
     12 C          62.6752   90.5849   12.0763 C.ar    1  UNL1       -0.0029
     13 C          64.0886   92.2790   10.7043 C.3     1  UNL1        0.0992
     14 C          69.0907   92.4213    9.3047 C.3     1  UNL1        0.0186
     15 C          67.8616   93.1201    9.8056 C.3     1  UNL1        0.0702
     16 C          66.5897   92.3502   10.0045 C.3     1  UNL1        0.0882
     17 N          65.3605   93.0490   10.5054 N.3     1  UNL1       -0.2666
     18 C          65.4032   94.5176   10.8074 C.3     1  UNL1        0.0882
     19 C          66.6751   95.2875   10.6084 C.3     1  UNL1        0.0702
     20 C          66.7178   96.7562   10.9104 C.3     1  UNL1        0.0186
     21 N          67.9042   94.5887   10.1075 N.3     1  UNL1       -0.2974
     22 H          68.6278   94.7232   10.8138 H       1  UNL1        0.1232
     23 C          64.3166   86.6015   13.9391 C.3     1  UNL1        0.1203
     24 N          63.4252   85.7049   13.1318 N.am    1  UNL1       -0.2706
     25 C          63.1925   84.2888   13.5681 C.3     1  UNL1        0.1153
     26 C          62.7666   86.2245   11.8883 C.2     1  UNL1        0.2705
     27 O          62.9994   87.6406   11.4521 O.2     1  UNL1       -0.2708
     28 C          61.8753   85.3279   11.0811 C.3     1  UNL1        0.2896
     29 O          61.8751   85.4213    9.5840 O.3     1  UNL1       -0.4656
     30 C          61.0225   86.4463    8.8966 C.ar    1  UNL1        0.1394
     31 C          61.1109   87.8882    9.3005 C.ar    1  UNL1        0.0392
     32 C          60.2583   88.9132    8.6132 C.ar    1  UNL1        0.0327
     33 C          59.3174   88.4964    7.5219 C.ar    1  UNL1        0.1403
     34 F          58.4648   89.5214    6.8345 F       1  UNL1       -0.2042
     35 C          59.2290   87.0545    7.1180 C.ar    1  UNL1        0.0327
     36 C          60.0816   86.0295    7.8054 C.ar    1  UNL1        0.0392
@<TRIPOS>BOND
     1    15    14    1
     2    15    16    1
     3    16    17    1
     4    17    13    1
     5    13     7    1
     6     7     8   ar
     7     8     9   ar
     8     9    10   ar
     9    10     1    1
    10     1     2   ar
    11     2     3   ar
    12     3     4   ar
    13     4     5   ar
    14     5     6   ar
    15     6    23    1
    16    23    24    1
    17    24    25    1
    18    24    26   am
    19    26    27    2
    20    26    28    1
    21    28    29    1
    22    29    30    1
    23    30    31   ar
    24    31    32   ar
    25    32    33   ar
    26    33    34    1
    27    33    35   ar
    28    35    36   ar
    29    10    11   ar
    30    11    12   ar
    31    17    18    1
    32    18    19    1
    33    19    20    1
    34    19    21    1
    35    21    15    1
    36    12     7   ar
    37     6     1   ar
    38    36    30   ar
    39    21    22    1
@<TRIPOS>MOLECULE
*****
 36 39 0 0 0
SMALL
GASTEIGER

@<TRIPOS>ATOM
      1 C          64.9768   90.2291   14.2231 C.ar    1  UNL1       -0.0024
      2 C          66.3929   90.5738   14.5782 C.ar    1  UNL1       -0.0003
      3 C          66.9564   91.9117   14.2008 C.ar    1  UNL1       -0.0000
      4 C          66.1038   92.9050   13.4682 C.ar    1  UNL1       -0.0003
      5 C          64.6878   92.5603   13.1131 C.ar    1  UNL1       -0.0026
      6 C          64.1243   91.2224   13.4906 C.ar    1  UNL1       -0.0023
      7 C          63.2863   86.2154   15.3554 C.ar    1  UNL1       -0.0061
      8 C          63.3191   87.3266   16.3625 C.ar    1  UNL1       -0.0029
      9 C          63.8826   88.6645   15.9851 C.ar    1  UNL1       -0.0003
     10 C          64.4133   88.8912   14.6005 C.ar    1  UNL1       -0.0003
     11 C          64.3805   87.7801   13.5935 C.ar    1  UNL1       -0.0003
     12 C          63.8170   86.4422   13.9709 C.ar    1  UNL1       -0.0029
     13 C          62.7228   84.8775   15.7328 C.3     1  UNL1        0.0992
     14 C          60.8275   80.3170   14.1172 C.3     1  UNL1        0.0186
     15 C          61.7493   81.4838   13.9202 C.3     1  UNL1        0.0702
     16 C          61.7752   82.5972   14.9250 C.3     1  UNL1        0.0882
     17 N          62.6970   83.7640   14.7280 N.3     1  UNL1       -0.2666
     18 C          63.5931   83.8174   13.5262 C.3     1  UNL1        0.0882
     19 C          63.5672   82.7039   12.5215 C.3     1  UNL1        0.0702
     20 C          64.4633   82.7573   11.3197 C.3     1  UNL1        0.0186
     21 N          62.6454   81.5372   12.7185 N.3     1  UNL1       -0.2974
     22 H          63.2301   80.7020   12.7498 H       1  UNL1        0.1232
     23 C          62.7082   90.8778   13.1354 C.3     1  UNL1        0.1203
     24 N          62.4093   90.1679   11.8483 N.am    1  UNL1       -0.2706
     25 C          63.4032   90.2008   10.7254 C.3     1  UNL1        0.1153
     26 C          61.1165   89.4251   11.6842 C.2     1  UNL1        0.2705
     27 O          60.1226   89.3922   12.8071 O.2     1  UNL1       -0.2708
     28 C          60.8176   88.7153   10.3970 C.3     1  UNL1        0.2896
     29 O          60.6661   87.2230   10.3812 O.3     1  UNL1       -0.4656
     30 C          61.1236   86.4354    9.1893 C.ar    1  UNL1        0.1394
     31 C          60.1864   86.1983    8.0424 C.ar    1  UNL1        0.0392
     32 C          60.6438   85.4107    6.8506 C.ar    1  UNL1        0.0327
     33 C          62.0384   84.8601    6.8058 C.ar    1  UNL1        0.1403
     34 F          62.4959   84.0725    5.6140 F       1  UNL1       -0.2042
     35 C          62.9755   85.0972    7.9528 C.ar    1  UNL1        0.0327
     36 C          62.5181   85.8848    9.1445 C.ar    1  UNL1        0.0392
@<TRIPOS>BOND
     1    15    14    1
     2    15    16    1
     3    16    17    1
     4    17    13    1
     5    13     7    1
     6     7     8   ar
     7     8     9   ar
     8     9    10   ar
     9    10     1    1
    10     1     2   ar
    11     2     3   ar
    12     3     4   ar
    13     4     5   ar
    14     5     6   ar
    15     6    23    1
    16    23    24    1
    17    24    25    1
    18    24    26   am
    19    26    27    2
    20    26    28    1
    21    28    29    1
    22    29    30    1
    23    30    31   ar
    24    31    32   ar
    25    32    33   ar
    26    33    34    1
    27    33    35   ar
    28    35    36   ar
    29    10    11   ar
    30    11    12   ar
    31    17    18    1
    32    18    19    1
    33    19    20    1
    34    19    21    1
    35    21    15    1
    36    12     7   ar
    37     6     1   ar
    38    36    30   ar
    39    21    22    1
@<TRIPOS>MOLECULE
*****
 36 39 0 0 0
SMALL
GASTEIGER

@<TRIPOS>ATOM
      1 C          63.5419   88.6343   15.2917 C.ar    1  UNL1       -0.0024
      2 C          63.0271   89.1596   16.5991 C.ar    1  UNL1       -0.0003
      3 C          62.8721   88.2350   17.7700 C.ar    1  UNL1       -0.0000
      4 C          63.2318   86.7851   17.6336 C.ar    1  UNL1       -0.0003
      5 C          63.7466   86.2599   16.3263 C.ar    1  UNL1       -0.0026
      6 C          63.9016   87.1845   15.1553 C.ar    1  UNL1       -0.0023
      7 C          64.0070   91.4081   11.7789 C.ar    1  UNL1       -0.0061
      8 C          64.9477   91.5079   12.9431 C.ar    1  UNL1       -0.0029
      9 C          64.7927   90.5833   14.1140 C.ar    1  UNL1       -0.0003
     10 C          63.6969   89.5589   14.1208 C.ar    1  UNL1       -0.0003
     11 C          62.7563   89.4591   12.9567 C.ar    1  UNL1       -0.0003
     12 C          62.9113   90.3837   11.7858 C.ar    1  UNL1       -0.0029
     13 C          64.1620   92.3327   10.6080 C.3     1  UNL1        0.0992
     14 C          69.1899   92.3711    9.2969 C.3     1  UNL1        0.0186
     15 C          67.9606   93.1000    9.7525 C.3     1  UNL1        0.0702
     16 C          66.6760   92.3519    9.9524 C.3     1  UNL1        0.0882
     17 N          65.4467   93.0808   10.4081 N.3     1  UNL1       -0.2666
     18 C          65.5021   94.5578   10.6638 C.3     1  UNL1        0.0882
     19 C          66.7867   95.3059   10.4639 C.3     1  UNL1        0.0702
     20 C          66.8422   96.7829   10.7196 C.3     1  UNL1        0.0186
     21 N          68.0160   94.5770   10.0083 N.3     1  UNL1       -0.2974
     22 H          68.7283   94.7255   10.7231 H       1  UNL1        0.1232
     23 C          64.4163   86.6592   13.8479 C.3     1  UNL1        0.1203
     24 N          64.0013   85.2992   13.3704 N.am    1  UNL1       -0.2706
     25 C          64.7089   84.0779   13.8779 C.3     1  UNL1        0.1153
     26 C          62.8785   85.1605   12.3854 C.2     1  UNL1        0.2705
     27 O          62.1709   86.3819   11.8779 O.2     1  UNL1       -0.2708
     28 C          62.4634   83.8006   11.9079 C.3     1  UNL1        0.2896
     29 O          63.4528   82.9175   11.2070 O.3     1  UNL1       -0.4656
     30 C          63.1898   81.4457   11.0850 C.ar    1  UNL1        0.1394
     31 C          62.8725   80.6367   12.3077 C.ar    1  UNL1        0.0392
     32 C          62.6095   79.1650   12.1858 C.ar    1  UNL1        0.0327
     33 C          62.6639   78.5023   10.8412 C.ar    1  UNL1        0.1403
     34 F          62.4009   77.0305   10.7193 F       1  UNL1       -0.2042
     35 C          62.9812   79.3113    9.6186 C.ar    1  UNL1        0.0327
     36 C          63.2442   80.7830    9.7405 C.ar    1  UNL1        0.0392
@<TRIPOS>BOND
     1    15    14    1
     2    15    16    1
     3    16    17    1
     4    17    13    1
     5    13     7    1
     6     7     8   ar
     7     8     9   ar
     8     9    10   ar
     9    10     1    1
    10     1     2   ar
    11     2     3   ar
    12     3     4   ar
    13     4     5   ar
    14     5     6   ar
    15     6    23    1
    16    23    24    1
    17    24    25    1
    18    24    26   am
    19    26    27    2
    20    26    28    1
    21    28    29    1
    22    29    30    1
    23    30    31   ar
    24    31    32   ar
    25    32    33   ar
    26    33    34    1
    27    33    35   ar
    28    35    36   ar
    29    10    11   ar
    30    11    12   ar
    31    17    18    1
    32    18    19    1
    33    19    20    1
    34    19    21    1
    35    21    15    1
    36    12     7   ar
    37     6     1   ar
    38    36    30   ar
    39    21    22    1
