@<TRIPOS>MOLECULE
*****
 30 33 0 0 0
SMALL
GASTEIGER

@<TRIPOS>ATOM
      1 N          63.7236   88.5302   13.0712 N.ar    1  UNL1       -0.2644
      2 C          63.7258   90.0103   12.8277 C.ar    1  UNL1        0.2037
      3 N          62.8749   90.5924   11.7383 N.ar    1  UNL1       -0.2148
      4 C          62.0216   89.6944   10.8923 C.ar    1  UNL1        0.0887
      5 C          61.1706   90.2766    9.8028 C.ar    1  UNL1        0.0199
      6 C          60.3174   89.3786    8.9569 C.ar    1  UNL1        0.0082
      7 C          60.3152   87.8985    9.2004 C.ar    1  UNL1        0.0348
      8 BR         59.4620   87.0005    8.3543 Br      1  UNL1       -0.0490
      9 C          61.1662   87.3163   10.2898 C.ar    1  UNL1        0.0129
     10 C          62.0194   88.2143   11.1357 C.ar    1  UNL1        0.0744
     11 C          62.8704   87.6322   12.2252 C.ar    1  UNL1        0.2645
     12 O          62.8682   86.1521   12.4687 O.2     1  UNL1       -0.2668
     13 N          64.5791   90.9082   13.6737 N.pl3   1  UNL1       -0.2781
     14 C          65.9065   91.3827   13.1612 C.3     1  UNL1        0.0937
     15 C          66.7597   92.2806   14.0072 C.3     1  UNL1        0.0229
     16 C          66.2854   92.7041   15.3657 C.3     1  UNL1        0.0190
     17 C          64.9580   92.2297   15.8783 C.3     1  UNL1        0.0710
     18 N          64.4837   92.6532   17.2369 N.3     1  UNL1       -0.3208
     19 C          64.1048   91.3318   15.0323 C.3     1  UNL1        0.1089
     20 H          65.1834   93.2572   17.6682 H       1  UNL1        0.1189
     21 H          64.3409   91.8283   17.8196 H       1  UNL1        0.1189
     22 C          64.5747   87.9480   14.1607 C.3     1  UNL1        0.1391
     23 C          63.9024   85.9980   15.7403 C.ar    1  UNL1        0.0663
     24 C          63.2677   85.5152   17.0108 C.ar    1  UNL1        0.0100
     25 C          62.6704   86.4997   17.9720 C.ar    1  UNL1        0.0007
     26 C          62.7080   87.9671   17.6629 C.ar    1  UNL1       -0.0002
     27 C          63.3427   88.4499   16.3924 C.ar    1  UNL1       -0.0017
     28 C          63.9399   87.4653   15.4311 C.ar    1  UNL1        0.0102
     29 N          65.0968   84.0289   13.8178 N.1     1  UNL1       -0.1908
     30 C          64.4996   85.0135   14.7791 C.1     1  UNL1        0.1002
@<TRIPOS>BOND
     1    29    30    3
     2    30    23    1
     3    23    24   ar
     4    24    25   ar
     5    25    26   ar
     6    26    27   ar
     7    27    28   ar
     8    28    22    1
     9    22     1    1
    10     1     2   ar
    11     2    13    1
    12    13    14    1
    13    14    15    1
    14    15    16    1
    15    16    17    1
    16    17    18    1
    17    17    19    1
    18     2     3   ar
    19     3     4   ar
    20     4     5   ar
    21     5     6   ar
    22     6     7   ar
    23     7     8    1
    24     7     9   ar
    25     9    10   ar
    26    10    11   ar
    27    11    12    2
    28    28    23   ar
    29    11     1   ar
    30    19    13    1
    31    10     4   ar
    32    18    20    1
    33    18    21    1
@<TRIPOS>MOLECULE
*****
 30 33 0 0 0
SMALL
GASTEIGER

@<TRIPOS>ATOM
      1 N          62.4355   87.3741   11.7830 N.ar    1  UNL1       -0.2644
      2 C          62.1139   88.0962   10.5082 C.ar    1  UNL1        0.2037
      3 N          62.6312   89.4859   10.2823 N.ar    1  UNL1       -0.2148
      4 C          63.4702   90.1536   11.3313 C.ar    1  UNL1        0.0887
      5 C          63.9875   91.5433   11.1054 C.ar    1  UNL1        0.0199
      6 C          64.8264   92.2110   12.1544 C.ar    1  UNL1        0.0082
      7 C          65.1479   91.4890   13.4293 C.ar    1  UNL1        0.0348
      8 BR         65.9869   92.1568   14.4783 Br      1  UNL1       -0.0490
      9 C          64.6306   90.0993   13.6551 C.ar    1  UNL1        0.0129
     10 C          63.7917   89.4316   12.6062 C.ar    1  UNL1        0.0744
     11 C          63.2744   88.0418   12.8320 C.ar    1  UNL1        0.2645
     12 O          63.5960   87.3198   14.1069 O.2     1  UNL1       -0.2668
     13 N          61.2750   87.4284    9.4592 N.pl3   1  UNL1       -0.2781
     14 C          59.8186   87.7657    9.3367 C.3     1  UNL1        0.0937
     15 C          58.9797   87.0980    8.2877 C.3     1  UNL1        0.0229
     16 C          59.5973   86.0929    7.3612 C.3     1  UNL1        0.0190
     17 C          61.0537   85.7555    7.4837 C.3     1  UNL1        0.0710
     18 N          61.6712   84.7504    6.5572 N.3     1  UNL1       -0.3208
     19 C          61.8925   86.4233    8.5327 C.3     1  UNL1        0.1089
     20 H          60.9616   84.4003    5.9136 H       1  UNL1        0.1189
     21 H          62.0498   83.9747    7.1006 H       1  UNL1        0.1189
     22 C          61.9181   85.9844   12.0089 C.3     1  UNL1        0.1391
     23 C          63.2291   83.9481   12.9496 C.ar    1  UNL1        0.0663
     24 C          64.1285   82.7680   12.7294 C.ar    1  UNL1        0.0100
     25 C          64.6164   82.4441   11.3485 C.ar    1  UNL1        0.0007
     26 C          64.2048   83.3003   10.1876 C.ar    1  UNL1       -0.0002
     27 C          63.3054   84.4804   10.4077 C.ar    1  UNL1       -0.0017
     28 C          62.8175   84.8043   11.7888 C.ar    1  UNL1        0.0102
     29 N          62.2535   84.5960   15.7116 N.1     1  UNL1       -0.1908
     30 C          62.7413   84.2720   14.3305 C.1     1  UNL1        0.1002
@<TRIPOS>BOND
     1    29    30    3
     2    30    23    1
     3    23    24   ar
     4    24    25   ar
     5    25    26   ar
     6    26    27   ar
     7    27    28   ar
     8    28    22    1
     9    22     1    1
    10     1     2   ar
    11     2    13    1
    12    13    14    1
    13    14    15    1
    14    15    16    1
    15    16    17    1
    16    17    18    1
    17    17    19    1
    18     2     3   ar
    19     3     4   ar
    20     4     5   ar
    21     5     6   ar
    22     6     7   ar
    23     7     8    1
    24     7     9   ar
    25     9    10   ar
    26    10    11   ar
    27    11    12    2
    28    28    23   ar
    29    11     1   ar
    30    19    13    1
    31    10     4   ar
    32    18    20    1
    33    18    21    1
@<TRIPOS>MOLECULE
*****
 30 33 0 0 0
SMALL
GASTEIGER

@<TRIPOS>ATOM
      1 N          63.8615   89.2534   12.8947 N.ar    1  UNL1       -0.2644
      2 C          63.9124   90.6385   12.3210 C.ar    1  UNL1        0.2037
      3 N          63.0704   90.9884   11.1300 N.ar    1  UNL1       -0.2148
      4 C          62.1774   89.9532   10.5126 C.ar    1  UNL1        0.0887
      5 C          61.3354   90.3031    9.3216 C.ar    1  UNL1        0.0199
      6 C          60.4424   89.2680    8.7043 C.ar    1  UNL1        0.0082
      7 C          60.3916   87.8830    9.2779 C.ar    1  UNL1        0.0348
      8 BR         59.4986   86.8478    8.6605 Br      1  UNL1       -0.0490
      9 C          61.2336   87.5330   10.4689 C.ar    1  UNL1        0.0129
     10 C          62.1265   88.5682   11.0863 C.ar    1  UNL1        0.0744
     11 C          62.9686   88.2183   12.2773 C.ar    1  UNL1        0.2645
     12 O          62.9177   86.8332   12.8510 O.2     1  UNL1       -0.2668
     13 N          64.8054   91.6736   12.9384 N.pl3   1  UNL1       -0.2781
     14 C          65.4496   92.7187   12.0766 C.3     1  UNL1        0.0937
     15 C          66.3425   93.7538   12.6941 C.3     1  UNL1        0.0229
     16 C          66.5912   93.7438   14.1733 C.3     1  UNL1        0.0190
     17 C          65.9470   92.6987   15.0351 C.3     1  UNL1        0.0710
     18 N          66.1957   92.6887   16.5143 N.3     1  UNL1       -0.3208
     19 C          65.0541   91.6636   14.4176 C.3     1  UNL1        0.1089
     20 H          66.8210   93.4564   16.7591 H       1  UNL1        0.1189
     21 H          66.6246   91.8025   16.7809 H       1  UNL1        0.1189
     22 C          64.7036   88.9035   14.0857 C.3     1  UNL1        0.1391
     23 C          63.4638   88.5386   16.3395 C.ar    1  UNL1        0.0663
     24 C          62.9270   87.6145   17.3921 C.ar    1  UNL1        0.0100
     25 C          63.0933   86.1312   17.2435 C.ar    1  UNL1        0.0007
     26 C          63.7964   85.5720   16.0422 C.ar    1  UNL1       -0.0002
     27 C          64.3331   86.4961   14.9896 C.ar    1  UNL1       -0.0017
     28 C          64.1668   87.9794   15.1383 C.ar    1  UNL1        0.0102
     29 N          63.1313   91.5053   16.6368 N.1     1  UNL1       -0.1908
     30 C          63.2975   90.0219   16.4882 C.1     1  UNL1        0.1002
@<TRIPOS>BOND
     1    29    30    3
     2    30    23    1
     3    23    24   ar
     4    24    25   ar
     5    25    26   ar
     6    26    27   ar
     7    27    28   ar
     8    28    22    1
     9    22     1    1
    10     1     2   ar
    11     2    13    1
    12    13    14    1
    13    14    15    1
    14    15    16    1
    15    16    17    1
    16    17    18    1
    17    17    19    1
    18     2     3   ar
    19     3     4   ar
    20     4     5   ar
    21     5     6   ar
    22     6     7   ar
    23     7     8    1
    24     7     9   ar
    25     9    10   ar
    26    10    11   ar
    27    11    12    2
    28    28    23   ar
    29    11     1   ar
    30    19    13    1
    31    10     4   ar
    32    18    20    1
    33    18    21    1
@<TRIPOS>MOLECULE
*****
 30 33 0 0 0
SMALL
GASTEIGER

@<TRIPOS>ATOM
      1 N          62.2026   87.4001   11.4860 N.ar    1  UNL1       -0.2644
      2 C          61.7950   88.3969   10.4419 C.ar    1  UNL1        0.2037
      3 N          62.3216   89.8003   10.4986 N.ar    1  UNL1       -0.2148
      4 C          63.2558   90.2069   11.5996 C.ar    1  UNL1        0.0887
      5 C          63.7824   91.6103   11.6563 C.ar    1  UNL1        0.0199
      6 C          64.7165   92.0168   12.7572 C.ar    1  UNL1        0.0082
      7 C          65.1241   91.0200   13.8013 C.ar    1  UNL1        0.0348
      8 BR         66.0583   91.4266   14.9023 Br      1  UNL1       -0.0490
      9 C          64.5976   89.6166   13.7446 C.ar    1  UNL1        0.0129
     10 C          63.6634   89.2101   12.6437 C.ar    1  UNL1        0.0744
     11 C          63.1368   87.8067   12.5869 C.ar    1  UNL1        0.2645
     12 O          63.5444   86.8098   13.6310 O.2     1  UNL1       -0.2668
     13 N          60.8608   87.9903    9.3409 N.pl3   1  UNL1       -0.2781
     14 C          60.5002   86.5458    9.1586 C.3     1  UNL1        0.0937
     15 C          59.5660   86.1392    8.0577 C.3     1  UNL1        0.0229
     16 C          58.9925   87.1772    7.1392 C.3     1  UNL1        0.0190
     17 C          59.3531   88.6217    7.3215 C.3     1  UNL1        0.0710
     18 N          58.7796   89.6597    6.4030 N.3     1  UNL1       -0.3208
     19 C          60.2873   89.0283    8.4224 C.3     1  UNL1        0.1089
     20 H          58.1703   89.2098    5.7198 H       1  UNL1        0.1189
     21 H          59.5373   90.1406    5.9182 H       1  UNL1        0.1189
     22 C          61.6760   85.9967   11.4292 C.3     1  UNL1        0.1391
     23 C          63.3742   84.2259   10.5746 C.ar    1  UNL1        0.0663
     24 C          64.2909   83.0694   10.8433 C.ar    1  UNL1        0.0100
     25 C          64.4262   82.5273   12.2354 C.ar    1  UNL1        0.0007
     26 C          63.6447   83.1416   13.3588 C.ar    1  UNL1       -0.0002
     27 C          62.7280   84.2981   13.0900 C.ar    1  UNL1       -0.0017
     28 C          62.5927   84.8402   11.6979 C.ar    1  UNL1        0.0102
     29 N          63.1036   85.3101    7.7905 N.1     1  UNL1       -0.1908
     30 C          63.2389   84.7680    9.1826 C.1     1  UNL1        0.1002
@<TRIPOS>BOND
     1    29    30    3
     2    30    23    1
     3    23    24   ar
     4    24    25   ar
     5    25    26   ar
     6    26    27   ar
     7    27    28   ar
     8    28    22    1
     9    22     1    1
    10     1     2   ar
    11     2    13    1
    12    13    14    1
    13    14    15    1
    14    15    16    1
    15    16    17    1
    16    17    18    1
    17    17    19    1
    18     2     3   ar
    19     3     4   ar
    20     4     5   ar
    21     5     6   ar
    22     6     7   ar
    23     7     8    1
    24     7     9   ar
    25     9    10   ar
    26    10    11   ar
    27    11    12    2
    28    28    23   ar
    29    11     1   ar
    30    19    13    1
    31    10     4   ar
    32    18    20    1
    33    18    21    1
@<TRIPOS>MOLECULE
*****
 30 33 0 0 0
SMALL
GASTEIGER

@<TRIPOS>ATOM
      1 N          62.5813   86.8752   11.7818 N.ar    1  UNL1       -0.2644
      2 C          62.1348   87.7322   10.6345 C.ar    1  UNL1        0.2037
      3 N          62.4843   89.1906   10.6073 N.ar    1  UNL1       -0.2148
      4 C          63.2804   89.7921   11.7273 C.ar    1  UNL1        0.0887
      5 C          63.6300   91.2505   11.7001 C.ar    1  UNL1        0.0199
      6 C          64.4260   91.8520   12.8201 C.ar    1  UNL1        0.0082
      7 C          64.8725   90.9951   13.9674 C.ar    1  UNL1        0.0348
      8 BR         65.6686   91.5966   15.0874 Br      1  UNL1       -0.0490
      9 C          64.5230   89.5367   13.9946 C.ar    1  UNL1        0.0129
     10 C          63.7269   88.9352   12.8746 C.ar    1  UNL1        0.0744
     11 C          63.3773   87.4767   12.9019 C.ar    1  UNL1        0.2645
     12 O          63.8239   86.6198   14.0492 O.2     1  UNL1       -0.2668
     13 N          61.3387   87.1306    9.5145 N.pl3   1  UNL1       -0.2781
     14 C          59.8896   87.4819    9.3513 C.3     1  UNL1        0.0937
     15 C          59.0936   86.8804    8.2313 C.3     1  UNL1        0.0229
     16 C          59.7467   85.9275    7.2745 C.3     1  UNL1        0.0190
     17 C          61.1958   85.5762    7.4377 C.3     1  UNL1        0.0710
     18 N          61.8488   84.6233    6.4808 N.3     1  UNL1       -0.3208
     19 C          61.9918   86.1777    8.5577 C.3     1  UNL1        0.1089
     20 H          61.1658   84.3147    5.7890 H       1  UNL1        0.1189
     21 H          62.2022   83.8154    6.9936 H       1  UNL1        0.1189
     22 C          62.2317   85.4167   11.8091 C.3     1  UNL1        0.1391
     23 C          63.6408   83.4591   12.7745 C.ar    1  UNL1        0.0663
     24 C          64.0584   82.6094   13.9380 C.ar    1  UNL1        0.0100
     25 C          63.4843   82.8676   15.2995 C.ar    1  UNL1        0.0007
     26 C          62.4927   83.9756   15.4976 C.ar    1  UNL1       -0.0002
     27 C          62.0751   84.8253   14.3341 C.ar    1  UNL1       -0.0017
     28 C          62.6493   84.5670   12.9726 C.ar    1  UNL1        0.0102
     29 N          64.7889   82.9427   10.0514 N.1     1  UNL1       -0.1908
     30 C          64.2149   83.2009   11.4130 C.1     1  UNL1        0.1002
@<TRIPOS>BOND
     1    29    30    3
     2    30    23    1
     3    23    24   ar
     4    24    25   ar
     5    25    26   ar
     6    26    27   ar
     7    27    28   ar
     8    28    22    1
     9    22     1    1
    10     1     2   ar
    11     2    13    1
    12    13    14    1
    13    14    15    1
    14    15    16    1
    15    16    17    1
    16    17    18    1
    17    17    19    1
    18     2     3   ar
    19     3     4   ar
    20     4     5   ar
    21     5     6   ar
    22     6     7   ar
    23     7     8    1
    24     7     9   ar
    25     9    10   ar
    26    10    11   ar
    27    11    12    2
    28    28    23   ar
    29    11     1   ar
    30    19    13    1
    31    10     4   ar
    32    18    20    1
    33    18    21    1
@<TRIPOS>MOLECULE
*****
 30 33 0 0 0
SMALL
GASTEIGER

@<TRIPOS>ATOM
      1 N          63.8059   89.3994   12.7653 N.ar    1  UNL1       -0.2644
      2 C          64.3490   89.2781   14.1583 C.ar    1  UNL1        0.2037
      3 N          65.1837   90.3821   14.7366 N.ar    1  UNL1       -0.2148
      4 C          65.4754   91.6074   13.9220 C.ar    1  UNL1        0.0887
      5 C          66.3101   92.7113   14.5003 C.ar    1  UNL1        0.0199
      6 C          66.6018   93.9366   13.6856 C.ar    1  UNL1        0.0082
      7 C          66.0587   94.0579   12.2927 C.ar    1  UNL1        0.0348
      8 BR         66.3503   95.2832   11.4780 Br      1  UNL1       -0.0490
      9 C          65.2239   92.9539   11.7144 C.ar    1  UNL1        0.0129
     10 C          64.9323   91.7287   12.5290 C.ar    1  UNL1        0.0744
     11 C          64.0975   90.6247   11.9507 C.ar    1  UNL1        0.2645
     12 O          63.5544   90.7460   10.5578 O.2     1  UNL1       -0.2668
     13 N          64.0573   88.0528   14.9729 N.pl3   1  UNL1       -0.2781
     14 C          64.4824   86.7029   14.4758 C.3     1  UNL1        0.0937
     15 C          64.1907   85.4777   15.2904 C.3     1  UNL1        0.0229
     16 C          63.4740   85.6023   16.6022 C.3     1  UNL1        0.0190
     17 C          63.0490   86.9522   17.0994 C.3     1  UNL1        0.0710
     18 N          62.3322   87.0768   18.4112 N.3     1  UNL1       -0.3208
     19 C          63.3406   88.1774   16.2847 C.3     1  UNL1        0.1089
     20 H          62.2192   86.1518   18.8260 H       1  UNL1        0.1189
     21 H          61.4147   87.4956   18.2589 H       1  UNL1        0.1189
     22 C          62.9711   88.2954   12.1870 C.3     1  UNL1        0.1391
     23 C          61.5245   87.6464   10.1289 C.ar    1  UNL1        0.0663
     24 C          60.4231   87.9666    9.1623 C.ar    1  UNL1        0.0100
     25 C          59.6668   89.2558    9.2873 C.ar    1  UNL1        0.0007
     26 C          60.0119   90.2251   10.3789 C.ar    1  UNL1       -0.0002
     27 C          61.1133   89.9049   11.3455 C.ar    1  UNL1       -0.0017
     28 C          61.8697   88.6156   11.2204 C.ar    1  UNL1        0.0102
     29 N          63.0372   85.0678    9.8788 N.1     1  UNL1       -0.1908
     30 C          62.2809   86.3571   10.0039 C.1     1  UNL1        0.1002
@<TRIPOS>BOND
     1    29    30    3
     2    30    23    1
     3    23    24   ar
     4    24    25   ar
     5    25    26   ar
     6    26    27   ar
     7    27    28   ar
     8    28    22    1
     9    22     1    1
    10     1     2   ar
    11     2    13    1
    12    13    14    1
    13    14    15    1
    14    15    16    1
    15    16    17    1
    16    17    18    1
    17    17    19    1
    18     2     3   ar
    19     3     4   ar
    20     4     5   ar
    21     5     6   ar
    22     6     7   ar
    23     7     8    1
    24     7     9   ar
    25     9    10   ar
    26    10    11   ar
    27    11    12    2
    28    28    23   ar
    29    11     1   ar
    30    19    13    1
    31    10     4   ar
    32    18    20    1
    33    18    21    1
@<TRIPOS>MOLECULE
*****
 30 33 0 0 0
SMALL
GASTEIGER

@<TRIPOS>ATOM
      1 N          62.8344   86.6419   11.5233 N.ar    1  UNL1       -0.2644
      2 C          63.3512   87.2798   12.7786 C.ar    1  UNL1        0.2037
      3 N          63.6278   86.4379   13.9888 N.ar    1  UNL1       -0.2148
      4 C          63.3876   84.9579   13.9437 C.ar    1  UNL1        0.0887
      5 C          63.6642   84.1159   15.1539 C.ar    1  UNL1        0.0199
      6 C          63.4240   82.6360   15.1087 C.ar    1  UNL1        0.0082
      7 C          62.9072   81.9980   13.8533 C.ar    1  UNL1        0.0348
      8 BR         62.6670   80.5180   13.8082 Br      1  UNL1       -0.0490
      9 C          62.6306   82.8400   12.6431 C.ar    1  UNL1        0.0129
     10 C          62.8708   84.3199   12.6883 C.ar    1  UNL1        0.0744
     11 C          62.5942   85.1620   11.4781 C.ar    1  UNL1        0.2645
     12 O          62.0774   84.5240   10.2228 O.2     1  UNL1       -0.2668
     13 N          63.5914   88.7599   12.8238 N.pl3   1  UNL1       -0.2781
     14 C          63.2511   89.6114   11.6368 C.3     1  UNL1        0.0937
     15 C          63.4913   91.0914   11.6820 C.3     1  UNL1        0.0229
     16 C          64.0718   91.7197   12.9141 C.3     1  UNL1        0.0190
     17 C          64.4121   90.8681   14.1011 C.3     1  UNL1        0.0710
     18 N          64.9926   91.4964   15.3333 N.3     1  UNL1       -0.3208
     19 C          64.1719   89.3882   14.0559 C.3     1  UNL1        0.1089
     20 H          65.0872   92.5019   15.1899 H       1  UNL1        0.1189
     21 H          65.9100   91.0921   15.5212 H       1  UNL1        0.1189
     22 C          62.5578   87.4839   10.3131 C.3     1  UNL1        0.1391
     23 C          60.0164   87.7084    9.8220 C.ar    1  UNL1        0.0663
     24 C          58.8294   87.4088    8.9553 C.ar    1  UNL1        0.0100
     25 C          58.9967   86.5852    7.7129 C.ar    1  UNL1        0.0007
     26 C          60.3510   86.0611    7.3372 C.ar    1  UNL1       -0.0002
     27 C          61.5381   86.3607    8.2039 C.ar    1  UNL1       -0.0017
     28 C          61.3707   87.1843    9.4464 C.ar    1  UNL1        0.0102
     29 N          59.6819   89.3557   12.3069 N.1     1  UNL1       -0.1908
     30 C          59.8492   88.5320   11.0644 C.1     1  UNL1        0.1002
@<TRIPOS>BOND
     1    29    30    3
     2    30    23    1
     3    23    24   ar
     4    24    25   ar
     5    25    26   ar
     6    26    27   ar
     7    27    28   ar
     8    28    22    1
     9    22     1    1
    10     1     2   ar
    11     2    13    1
    12    13    14    1
    13    14    15    1
    14    15    16    1
    15    16    17    1
    16    17    18    1
    17    17    19    1
    18     2     3   ar
    19     3     4   ar
    20     4     5   ar
    21     5     6   ar
    22     6     7   ar
    23     7     8    1
    24     7     9   ar
    25     9    10   ar
    26    10    11   ar
    27    11    12    2
    28    28    23   ar
    29    11     1   ar
    30    19    13    1
    31    10     4   ar
    32    18    20    1
    33    18    21    1
@<TRIPOS>MOLECULE
*****
 30 33 0 0 0
SMALL
GASTEIGER

@<TRIPOS>ATOM
      1 N          62.1103   88.9746   11.7839 N.ar    1  UNL1       -0.2644
      2 C          62.3867   87.5044   11.6737 C.ar    1  UNL1        0.2037
      3 N          61.8639   86.7289   10.5010 N.ar    1  UNL1       -0.2148
      4 C          61.0648   87.4236    9.4385 C.ar    1  UNL1        0.0887
      5 C          60.5421   86.6480    8.2658 C.ar    1  UNL1        0.0199
      6 C          59.7430   87.3427    7.2033 C.ar    1  UNL1        0.0082
      7 C          59.4667   88.8129    7.3136 C.ar    1  UNL1        0.0348
      8 BR         58.6675   89.5076    6.2510 Br      1  UNL1       -0.0490
      9 C          59.9894   89.5884    8.4863 C.ar    1  UNL1        0.0129
     10 C          60.7885   88.8938    9.5487 C.ar    1  UNL1        0.0744
     11 C          61.3113   89.6693   10.7215 C.ar    1  UNL1        0.2645
     12 O          61.0349   91.1395   10.8317 O.2     1  UNL1       -0.2668
     13 N          63.1858   86.8097   12.7362 N.pl3   1  UNL1       -0.2781
     14 C          63.9069   87.6129   13.7778 C.3     1  UNL1        0.0937
     15 C          64.7060   86.9182   14.8403 C.3     1  UNL1        0.0229
     16 C          64.7839   85.4204   14.8611 C.3     1  UNL1        0.0190
     17 C          64.0628   84.6172   13.8196 C.3     1  UNL1        0.0710
     18 N          64.1408   83.1194   13.8404 N.3     1  UNL1       -0.3208
     19 C          63.2638   85.3119   12.7571 C.3     1  UNL1        0.1089
     20 H          64.7212   82.8200   14.6240 H       1  UNL1        0.1189
     21 H          64.5511   82.7881   12.9673 H       1  UNL1        0.1189
     22 C          62.6331   89.7501   12.9567 C.3     1  UNL1        0.1391
     23 C          64.4151   91.3539   13.9577 C.ar    1  UNL1        0.0663
     24 C          65.5217   92.3484   13.7662 C.ar    1  UNL1        0.0100
     25 C          65.9528   92.7333   12.3820 C.ar    1  UNL1        0.0007
     26 C          65.2773   92.1239   11.1893 C.ar    1  UNL1       -0.0002
     27 C          64.1707   91.1295   11.3809 C.ar    1  UNL1       -0.0017
     28 C          63.7397   90.7445   12.7652 C.ar    1  UNL1        0.0102
     29 N          63.5530   90.5840   16.7261 N.1     1  UNL1       -0.1908
     30 C          63.9841   90.9689   15.3419 C.1     1  UNL1        0.1002
@<TRIPOS>BOND
     1    29    30    3
     2    30    23    1
     3    23    24   ar
     4    24    25   ar
     5    25    26   ar
     6    26    27   ar
     7    27    28   ar
     8    28    22    1
     9    22     1    1
    10     1     2   ar
    11     2    13    1
    12    13    14    1
    13    14    15    1
    14    15    16    1
    15    16    17    1
    16    17    18    1
    17    17    19    1
    18     2     3   ar
    19     3     4   ar
    20     4     5   ar
    21     5     6   ar
    22     6     7   ar
    23     7     8    1
    24     7     9   ar
    25     9    10   ar
    26    10    11   ar
    27    11    12    2
    28    28    23   ar
    29    11     1   ar
    30    19    13    1
    31    10     4   ar
    32    18    20    1
    33    18    21    1
@<TRIPOS>MOLECULE
*****
 30 33 0 0 0
SMALL
GASTEIGER

@<TRIPOS>ATOM
      1 N          63.8307   88.3696   13.4329 N.ar    1  UNL1       -0.2644
      2 C          63.9471   89.8443   13.1844 C.ar    1  UNL1        0.2037
      3 N          63.2107   90.4721   12.0383 N.ar    1  UNL1       -0.2148
      4 C          62.3579   89.6252   11.1407 C.ar    1  UNL1        0.0887
      5 C          61.6215   90.2531    9.9946 C.ar    1  UNL1        0.0199
      6 C          60.7687   89.4062    9.0971 C.ar    1  UNL1        0.0082
      7 C          60.6524   87.9315    9.3456 C.ar    1  UNL1        0.0348
      8 BR         59.7996   87.0847    8.4480 Br      1  UNL1       -0.0490
      9 C          61.3888   87.3037   10.4917 C.ar    1  UNL1        0.0129
     10 C          62.2415   88.1506   11.3892 C.ar    1  UNL1        0.0744
     11 C          62.9780   87.5227   12.5354 C.ar    1  UNL1        0.2645
     12 O          62.8616   86.0481   12.7839 O.2     1  UNL1       -0.2668
     13 N          64.7999   90.6912   14.0820 N.pl3   1  UNL1       -0.2781
     14 C          66.2547   90.8837   13.7715 C.3     1  UNL1        0.0937
     15 C          67.1074   91.7305   14.6691 C.3     1  UNL1        0.0229
     16 C          66.5053   92.3848   15.8772 C.3     1  UNL1        0.0190
     17 C          65.0505   92.1923   16.1876 C.3     1  UNL1        0.0710
     18 N          64.4484   92.8466   17.3956 N.3     1  UNL1       -0.3208
     19 C          64.1978   91.3455   15.2900 C.3     1  UNL1        0.1089
     20 H          65.1661   93.3796   17.8868 H       1  UNL1        0.1189
     21 H          64.0711   92.1313   18.0172 H       1  UNL1        0.1189
     22 C          64.5672   87.7418   14.5790 C.3     1  UNL1        0.1391
     23 C          63.5801   85.7075   15.8585 C.ar    1  UNL1        0.0663
     24 C          63.5007   84.2260   16.0795 C.ar    1  UNL1        0.0100
     25 C          64.3291   83.2973   15.2421 C.ar    1  UNL1        0.0007
     26 C          65.2369   83.8501   14.1836 C.ar    1  UNL1       -0.0002
     27 C          65.3162   85.3316   13.9626 C.ar    1  UNL1       -0.0017
     28 C          64.4878   86.2603   14.8001 C.ar    1  UNL1        0.0102
     29 N          61.9233   87.5649   17.5334 N.1     1  UNL1       -0.1908
     30 C          62.7517   86.6361   16.6959 C.1     1  UNL1        0.1002
@<TRIPOS>BOND
     1    29    30    3
     2    30    23    1
     3    23    24   ar
     4    24    25   ar
     5    25    26   ar
     6    26    27   ar
     7    27    28   ar
     8    28    22    1
     9    22     1    1
    10     1     2   ar
    11     2    13    1
    12    13    14    1
    13    14    15    1
    14    15    16    1
    15    16    17    1
    16    17    18    1
    17    17    19    1
    18     2     3   ar
    19     3     4   ar
    20     4     5   ar
    21     5     6   ar
    22     6     7   ar
    23     7     8    1
    24     7     9   ar
    25     9    10   ar
    26    10    11   ar
    27    11    12    2
    28    28    23   ar
    29    11     1   ar
    30    19    13    1
    31    10     4   ar
    32    18    20    1
    33    18    21    1
