@<TRIPOS>MOLECULE
*****
 42 46 0 0 0
SMALL
GASTEIGER

@<TRIPOS>ATOM
      1 C          64.1490   85.9504   15.3627 C.ar    1  UNL1        0.1383
      2 C          63.5241   85.1309   16.4525 C.ar    1  UNL1        0.0369
      3 C          62.7678   85.8057   17.5584 C.ar    1  UNL1        0.0028
      4 C          62.6365   87.2998   17.5744 C.ar    1  UNL1       -0.0041
      5 C          63.2615   88.1193   16.4845 C.ar    1  UNL1       -0.0186
      6 C          64.0177   87.4446   15.3786 C.ar    1  UNL1        0.0326
      7 O          64.9053   85.2757   14.2567 O.3     1  UNL1       -0.4751
      8 C          64.5558   83.8730   13.8563 C.3     1  UNL1        0.2118
      9 C          63.2465   83.5899   13.1814 C.3     1  UNL1        0.0960
     10 C          62.0356   85.5176   10.0376 C.ar    1  UNL1        0.2289
     11 N          62.0001   85.2690   11.5165 N.ar    1  UNL1       -0.2129
     12 C          62.9636   84.1612   11.8236 C.ar    1  UNL1        0.0960
     13 C          63.5947   83.7251   10.5346 C.ar    1  UNL1        0.1387
     14 C          64.6194   82.6411   10.3770 C.3     1  UNL1        0.0738
     15 O          63.0211   84.5634    9.4308 O.2     1  UNL1       -0.4392
     16 C          59.6112   88.5868    7.8123 C.ar    1  UNL1        0.1387
     17 C          59.5143   87.1380    7.4362 C.ar    1  UNL1        0.0371
     18 C          60.3225   86.1149    8.1780 C.ar    1  UNL1        0.0078
     19 C          61.2275   86.5406    9.2959 C.ar    1  UNL1        0.0537
     20 C          61.3243   87.9895    9.6719 C.ar    1  UNL1        0.0078
     21 C          60.5162   89.0126    8.9302 C.ar    1  UNL1        0.0371
     22 C          59.3407   90.2205    5.8104 C.3     1  UNL1        0.2525
     23 O          58.8031   89.6099    7.0705 O.3     1  UNL1       -0.4714
     24 C          63.1303   89.6134   16.5004 C.3     1  UNL1        0.0376
     25 C          63.7266   90.4305   15.3928 C.3     1  UNL1        0.1052
     26 C          63.5848   90.4572   13.8997 C.2     1  UNL1        0.2315
     27 O          62.7881   89.6778   12.8958 O.2     1  UNL1       -0.2745
     28 N          64.5699   91.5861   13.8264 N.am    1  UNL1       -0.2546
     29 C          64.7116   91.5593   15.3194 C.3     1  UNL1        0.1249
     30 C          65.1662   92.4031   12.7188 C.ar    1  UNL1        0.0541
     31 C          64.9041   92.0330   11.2889 C.ar    1  UNL1        0.0146
     32 C          65.5004   92.8501   10.1813 C.ar    1  UNL1       -0.0030
     33 C          66.3588   94.0373   10.5035 C.ar    1  UNL1       -0.0227
     34 C          66.6209   94.4073   11.9333 C.ar    1  UNL1       -0.0030
     35 C          66.0246   93.5902   13.0409 C.ar    1  UNL1        0.0146
     36 C          66.9551   94.8543    9.3959 C.3     1  UNL1        0.0189
     37 C          67.8817   93.7234    9.0604 C.3     1  UNL1        0.0044
     38 C          66.0286   95.9852    9.7314 C.3     1  UNL1        0.0044
     39 C          67.5515   95.6714    8.2882 C.3     1  UNL1        0.0044
     40 C          65.5084   92.3387   16.3233 C.2     1  UNL1        0.0692
     41 O          66.9621   92.6143   16.0763 O.co2   1  UNL1       -0.5475
     42 O          64.8516   92.8425   17.5742 O.co2   1  UNL1       -0.5475
@<TRIPOS>UNITY_ATOM_ATTR
41 1
charge -1
@<TRIPOS>BOND
     1    22    23    1
     2    23    16    1
     3    16    17   ar
     4    17    18   ar
     5    18    19   ar
     6    19    10    1
     7    10    11   ar
     8    11    12   ar
     9    12     9    1
    10     9     8    1
    11     8     7    1
    12     7     1    1
    13     1     2   ar
    14     2     3   ar
    15     3     4   ar
    16     4     5   ar
    17     5    24    1
    18    25    24    1
    19    25    26    1
    20    26    27    2
    21    26    28   am
    22    28    30    1
    23    30    31   ar
    24    31    32   ar
    25    32    33   ar
    26    33    36    1
    27    36    37    1
    28    36    38    1
    29    36    39    1
    30    33    34   ar
    31    34    35   ar
    32    28    29    1
    33    29    40    1
    34    40    41   ar
    35    40    42   ar
    36     5     6   ar
    37    12    13   ar
    38    13    14    1
    39    13    15   ar
    40    19    20   ar
    41    20    21   ar
    42    21    16   ar
    43    15    10   ar
    44     6     1   ar
    45    29    25    1
    46    35    30   ar
@<TRIPOS>MOLECULE
*****
 42 46 0 0 0
SMALL
GASTEIGER

@<TRIPOS>ATOM
      1 C          64.2240   86.0275   15.3495 C.ar    1  UNL1        0.1383
      2 C          63.5541   85.2091   16.4131 C.ar    1  UNL1        0.0369
      3 C          62.7778   85.8869   17.5033 C.ar    1  UNL1        0.0028
      4 C          62.6715   87.3828   17.5297 C.ar    1  UNL1       -0.0041
      5 C          63.3415   88.2011   16.4660 C.ar    1  UNL1       -0.0186
      6 C          64.1177   87.5235   15.3759 C.ar    1  UNL1        0.0326
      7 O          65.0003   85.3499   14.2594 O.3     1  UNL1       -0.4751
      8 C          64.6063   83.9773   13.8001 C.3     1  UNL1        0.2118
      9 C          63.2522   83.7483   13.1968 C.3     1  UNL1        0.0960
     10 C          61.9866   85.5594   10.0056 C.ar    1  UNL1        0.2289
     11 N          61.9787   85.3672   11.4932 N.ar    1  UNL1       -0.2129
     12 C          62.9450   84.2687   11.8239 C.ar    1  UNL1        0.0960
     13 C          63.5503   83.7819   10.5407 C.ar    1  UNL1        0.1387
     14 C          64.5690   82.6892   10.4050 C.3     1  UNL1        0.0738
     15 O          62.9580   84.5795    9.4169 O.2     1  UNL1       -0.4392
     16 C          59.5283   88.5500    7.7115 C.ar    1  UNL1        0.1387
     17 C          59.4029   87.0863    7.4089 C.ar    1  UNL1        0.0371
     18 C          60.2223   86.0894    8.1736 C.ar    1  UNL1        0.0078
     19 C          61.1672   86.5562    9.2409 C.ar    1  UNL1        0.0537
     20 C          61.2927   88.0200    9.5435 C.ar    1  UNL1        0.0078
     21 C          60.4733   89.0169    8.7788 C.ar    1  UNL1        0.0371
     22 C          59.3199   90.2998    5.8024 C.3     1  UNL1        0.2525
     23 O          58.7089   89.5469    6.9469 O.3     1  UNL1       -0.4714
     24 C          63.2353   89.6971   16.4923 C.3     1  UNL1        0.0376
     25 C          63.8278   90.5108   15.3802 C.3     1  UNL1        0.1052
     26 C          64.8127   91.6393   15.2999 C.2     1  UNL1        0.2315
     27 O          65.6131   92.4216   16.2986 O.2     1  UNL1       -0.2745
     28 N          64.6658   91.6614   13.8073 N.am    1  UNL1       -0.2546
     29 C          63.6809   90.5330   13.8875 C.3     1  UNL1        0.1249
     30 C          65.2583   92.4751   12.6951 C.ar    1  UNL1        0.0541
     31 C          65.0400   92.0666   11.2684 C.ar    1  UNL1        0.0146
     32 C          65.6325   92.8802   10.1563 C.ar    1  UNL1       -0.0030
     33 C          66.4433   94.1023   10.4708 C.ar    1  UNL1       -0.0227
     34 C          66.6616   94.5108   11.8975 C.ar    1  UNL1       -0.0030
     35 C          66.0691   93.6972   13.0096 C.ar    1  UNL1        0.0146
     36 C          67.0359   94.9160    9.3587 C.3     1  UNL1        0.0189
     37 C          66.0745   96.0275    9.6596 C.3     1  UNL1        0.0044
     38 C          67.9972   93.8046    9.0578 C.3     1  UNL1        0.0044
     39 C          67.6284   95.7297    8.2465 C.3     1  UNL1        0.0044
     40 C          62.8805   89.7506   12.8888 C.2     1  UNL1        0.0692
     41 O          63.2490   88.3297   12.5800 O.co2   1  UNL1       -0.5475
     42 O          61.7116   90.3892   12.1989 O.co2   1  UNL1       -0.5475
@<TRIPOS>UNITY_ATOM_ATTR
41 1
charge -1
@<TRIPOS>BOND
     1    22    23    1
     2    23    16    1
     3    16    17   ar
     4    17    18   ar
     5    18    19   ar
     6    19    10    1
     7    10    11   ar
     8    11    12   ar
     9    12     9    1
    10     9     8    1
    11     8     7    1
    12     7     1    1
    13     1     2   ar
    14     2     3   ar
    15     3     4   ar
    16     4     5   ar
    17     5    24    1
    18    25    24    1
    19    25    26    1
    20    26    27    2
    21    26    28   am
    22    28    30    1
    23    30    31   ar
    24    31    32   ar
    25    32    33   ar
    26    33    36    1
    27    36    37    1
    28    36    38    1
    29    36    39    1
    30    33    34   ar
    31    34    35   ar
    32    28    29    1
    33    29    40    1
    34    40    41   ar
    35    40    42   ar
    36     5     6   ar
    37    12    13   ar
    38    13    14    1
    39    13    15   ar
    40    19    20   ar
    41    20    21   ar
    42    21    16   ar
    43    15    10   ar
    44     6     1   ar
    45    29    25    1
    46    35    30   ar
@<TRIPOS>MOLECULE
*****
 42 46 0 0 0
SMALL
GASTEIGER

@<TRIPOS>ATOM
      1 C          61.2358   91.3351    4.4429 C.ar    1  UNL1        0.1383
      2 C          60.3723   92.2574    3.6346 C.ar    1  UNL1        0.0369
      3 C          58.9032   92.3539    3.9224 C.ar    1  UNL1        0.0028
      4 C          58.2979   91.5281    5.0185 C.ar    1  UNL1       -0.0041
      5 C          59.1616   90.6057    5.8268 C.ar    1  UNL1       -0.0186
      6 C          60.6305   90.5093    5.5391 C.ar    1  UNL1        0.0326
      7 O          62.7049   91.2386    4.1551 O.3     1  UNL1       -0.4751
      8 C          63.1951   91.2704    2.7379 C.3     1  UNL1        0.2118
      9 C          63.5593   92.5780    2.0995 C.3     1  UNL1        0.0960
     10 C          61.1156   93.3280   -0.8214 C.ar    1  UNL1        0.2289
     11 N          61.4546   92.6113    0.4520 N.ar    1  UNL1       -0.2129
     12 C          62.8256   93.0463    0.8779 C.ar    1  UNL1        0.0960
     13 C          63.3338   94.0319   -0.1322 C.ar    1  UNL1        0.1387
     14 C          64.6651   94.7221   -0.0982 C.3     1  UNL1        0.0738
     15 O          62.2770   94.2059   -1.1824 O.2     1  UNL1       -0.4392
     16 C          57.2867   92.9164   -3.1494 C.ar    1  UNL1        0.1387
     17 C          57.3182   92.5701   -1.6903 C.ar    1  UNL1        0.0371
     18 C          58.5945   92.7073   -0.9143 C.ar    1  UNL1        0.0078
     19 C          59.8393   93.1908   -1.5974 C.ar    1  UNL1        0.0537
     20 C          59.8078   93.5372   -3.0565 C.ar    1  UNL1        0.0078
     21 C          58.5315   93.4000   -3.8325 C.ar    1  UNL1        0.0371
     22 C          56.0262   92.1606   -5.2918 C.3     1  UNL1        0.2525
     23 O          56.0104   92.7792   -3.9254 O.3     1  UNL1       -0.4714
     24 C          58.5563   89.7799    6.9230 C.3     1  UNL1        0.0376
     25 C          59.4009   88.7913    7.6708 C.3     1  UNL1        0.1052
     26 C          59.6621   87.3186    7.5566 C.2     1  UNL1        0.2315
     27 O          59.1868   86.2245    6.6471 O.2     1  UNL1       -0.2745
     28 N          60.5954   87.3932    8.7285 N.am    1  UNL1       -0.2546
     29 C          60.3342   88.8658    8.8427 C.3     1  UNL1        0.1249
     30 C          61.4400   86.4046    9.4763 C.ar    1  UNL1        0.0541
     31 C          62.4602   85.5842    8.7440 C.ar    1  UNL1        0.0146
     32 C          63.3048   84.5956    9.4918 C.ar    1  UNL1       -0.0030
     33 C          63.1293   84.4274   10.9720 C.ar    1  UNL1       -0.0227
     34 C          62.1092   85.2478   11.7043 C.ar    1  UNL1       -0.0030
     35 C          61.2646   86.2364   10.9564 C.ar    1  UNL1        0.0146
     36 C          63.9739   83.4388   11.7198 C.3     1  UNL1        0.0189
     37 C          63.6665   84.1485   13.0052 C.3     1  UNL1        0.0044
     38 C          64.2813   82.7292   10.4346 C.3     1  UNL1        0.0044
     39 C          64.8186   82.4502   12.4678 C.3     1  UNL1        0.0044
     40 C          60.8095   89.9599    9.7522 C.2     1  UNL1        0.0692
     41 O          59.8178   90.7670   10.5366 O.co2   1  UNL1       -0.5475
     42 O          62.2765   90.2470    9.8773 O.co2   1  UNL1       -0.5475
@<TRIPOS>UNITY_ATOM_ATTR
41 1
charge -1
@<TRIPOS>BOND
     1    22    23    1
     2    23    16    1
     3    16    17   ar
     4    17    18   ar
     5    18    19   ar
     6    19    10    1
     7    10    11   ar
     8    11    12   ar
     9    12     9    1
    10     9     8    1
    11     8     7    1
    12     7     1    1
    13     1     2   ar
    14     2     3   ar
    15     3     4   ar
    16     4     5   ar
    17     5    24    1
    18    25    24    1
    19    25    26    1
    20    26    27    2
    21    26    28   am
    22    28    30    1
    23    30    31   ar
    24    31    32   ar
    25    32    33   ar
    26    33    36    1
    27    36    37    1
    28    36    38    1
    29    36    39    1
    30    33    34   ar
    31    34    35   ar
    32    28    29    1
    33    29    40    1
    34    40    41   ar
    35    40    42   ar
    36     5     6   ar
    37    12    13   ar
    38    13    14    1
    39    13    15   ar
    40    19    20   ar
    41    20    21   ar
    42    21    16   ar
    43    15    10   ar
    44     6     1   ar
    45    29    25    1
    46    35    30   ar
@<TRIPOS>MOLECULE
*****
 42 46 0 0 0
SMALL
GASTEIGER

@<TRIPOS>ATOM
      1 C          61.2406   91.3536    4.3558 C.ar    1  UNL1        0.1383
      2 C          60.3745   92.2671    3.5403 C.ar    1  UNL1        0.0369
      3 C          58.9122   92.3898    3.8514 C.ar    1  UNL1        0.0028
      4 C          58.3162   91.5990    4.9780 C.ar    1  UNL1       -0.0041
      5 C          59.1824   90.6855    5.7936 C.ar    1  UNL1       -0.0186
      6 C          60.6446   90.5628    5.4825 C.ar    1  UNL1        0.0326
      7 O          62.7030   91.2309    4.0448 O.3     1  UNL1       -0.4751
      8 C          63.2182   91.6288    2.6934 C.3     1  UNL1        0.2118
      9 C          63.4882   93.0726    2.3890 C.3     1  UNL1        0.0960
     10 C          63.4793   94.0011   -1.3797 C.ar    1  UNL1        0.2289
     11 N          64.0483   93.2398   -0.2193 N.ar    1  UNL1       -0.2129
     12 C          63.2602   93.6024    1.0044 C.ar    1  UNL1        0.0960
     13 C          62.2040   94.5879    0.6002 C.ar    1  UNL1        0.1387
     14 C          61.1903   95.2165    1.5098 C.3     1  UNL1        0.0738
     15 O          62.3394   94.8343   -0.8732 O.2     1  UNL1       -0.4392
     16 C          64.9360   93.8179   -5.6335 C.ar    1  UNL1        0.1387
     17 C          65.0053   95.1083   -4.8719 C.ar    1  UNL1        0.0371
     18 C          64.5197   95.1694   -3.4540 C.ar    1  UNL1        0.0078
     19 C          63.9648   93.9401   -2.7976 C.ar    1  UNL1        0.0537
     20 C          63.8955   92.6497   -3.5592 C.ar    1  UNL1        0.0078
     21 C          64.3811   92.5886   -4.9771 C.ar    1  UNL1        0.0371
     22 C          66.8251   94.1700   -7.3820 C.3     1  UNL1        0.2525
     23 O          65.4215   93.7568   -7.0514 O.3     1  UNL1       -0.4714
     24 C          58.5864   89.8946    6.9202 C.3     1  UNL1        0.0376
     25 C          59.4233   88.8914    7.6572 C.3     1  UNL1        0.1052
     26 C          59.6863   87.4214    7.5164 C.2     1  UNL1        0.2315
     27 O          59.2212   86.3456    6.5802 O.2     1  UNL1       -0.2745
     28 N          60.6069   87.4727    8.6996 N.am    1  UNL1       -0.2546
     29 C          60.3439   88.9427    8.8404 C.3     1  UNL1        0.1249
     30 C          61.4438   86.4695    9.4366 C.ar    1  UNL1        0.0541
     31 C          61.2661   86.2857   10.9147 C.ar    1  UNL1        0.0146
     32 C          62.1030   85.2825   11.6517 C.ar    1  UNL1       -0.0030
     33 C          63.1175   84.4631   10.9106 C.ar    1  UNL1       -0.0227
     34 C          63.2952   84.6469    9.4326 C.ar    1  UNL1       -0.0030
     35 C          62.4583   85.6501    8.6956 C.ar    1  UNL1        0.0146
     36 C          63.9544   83.4599   11.6476 C.3     1  UNL1        0.0189
     37 C          64.1969   82.7201   10.3654 C.3     1  UNL1        0.0044
     38 C          63.7120   84.1996   12.9298 C.3     1  UNL1        0.0044
     39 C          64.7914   82.4566   12.3847 C.3     1  UNL1        0.0044
     40 C          60.8089   90.0185    9.7766 C.2     1  UNL1        0.0692
     41 O          59.8117   90.7793   10.5994 O.co2   1  UNL1       -0.5475
     42 O          62.2711   90.3335    9.8901 O.co2   1  UNL1       -0.5475
@<TRIPOS>UNITY_ATOM_ATTR
41 1
charge -1
@<TRIPOS>BOND
     1    22    23    1
     2    23    16    1
     3    16    17   ar
     4    17    18   ar
     5    18    19   ar
     6    19    10    1
     7    10    11   ar
     8    11    12   ar
     9    12     9    1
    10     9     8    1
    11     8     7    1
    12     7     1    1
    13     1     2   ar
    14     2     3   ar
    15     3     4   ar
    16     4     5   ar
    17     5    24    1
    18    25    24    1
    19    25    26    1
    20    26    27    2
    21    26    28   am
    22    28    30    1
    23    30    31   ar
    24    31    32   ar
    25    32    33   ar
    26    33    36    1
    27    36    37    1
    28    36    38    1
    29    36    39    1
    30    33    34   ar
    31    34    35   ar
    32    28    29    1
    33    29    40    1
    34    40    41   ar
    35    40    42   ar
    36     5     6   ar
    37    12    13   ar
    38    13    14    1
    39    13    15   ar
    40    19    20   ar
    41    20    21   ar
    42    21    16   ar
    43    15    10   ar
    44     6     1   ar
    45    29    25    1
    46    35    30   ar
