@<TRIPOS>MOLECULE
*****
 28 31 0 0 0
SMALL
GASTEIGER

@<TRIPOS>ATOM
      1 C          62.9002   88.6099   11.8077 C.ar    1  UNL1       -0.0220
      2 C          63.0019   90.0720   11.4882 C.ar    1  UNL1       -0.0042
      3 C          63.7278   90.9948   12.4216 C.ar    1  UNL1        0.0012
      4 C          64.3520   90.4557   13.6745 C.ar    1  UNL1        0.0196
      5 C          64.2502   88.9937   13.9940 C.ar    1  UNL1        0.0012
      6 C          63.5243   88.0708   13.0606 C.ar    1  UNL1       -0.0042
      7 C          65.0779   91.3786   14.6080 C.ar    1  UNL1        0.1050
      8 N          64.5748   91.8656   15.9346 N.ar    1  UNL1       -0.2234
      9 C          65.6203   92.7645   16.5252 C.ar    1  UNL1        0.1790
     10 N          66.7696   92.8331   15.5636 N.ar    1  UNL1       -0.3020
     11 C          68.0323   93.6201   15.7536 C.3     1  UNL1        0.1325
     12 C          66.4343   91.9766   14.3787 C.ar    1  UNL1        0.1108
     13 S          67.3030   91.7567   13.1758 S.3     1  UNL1       -0.0492
     14 C          67.1908   92.6713   11.9922 C.ar    1  UNL1        0.1121
     15 C          67.7424   92.2488   10.6629 C.ar    1  UNL1        0.0267
     16 C          67.6302   93.1635    9.4794 C.ar    1  UNL1        0.0150
     17 C          66.9662   94.5006    9.6252 C.ar    1  UNL1        0.0768
     18 CL         66.8540   95.4153    8.4416 Cl      1  UNL1       -0.0806
     19 C          66.4146   94.9231   10.9545 C.ar    1  UNL1        0.1107
     20 N          66.5268   94.0085   12.1380 N.ar    1  UNL1       -0.2364
     21 C          62.1393   86.4296   10.0571 C.3     1  UNL1        0.0811
     22 C          60.9518   87.3459   10.0746 C.3     1  UNL1        0.0142
     23 C          62.1742   87.6870   10.8742 C.3     1  UNL1        0.0314
     24 C          63.9423   82.8943   10.0811 C.3     1  UNL1        0.1149
     25 N          63.2769   84.1493   10.5630 N.am    1  UNL1       -0.2760
     26 C          63.0837   84.3789   12.0327 C.3     1  UNL1        0.1149
     27 C          62.8047   85.1746    9.5752 C.2     1  UNL1        0.2256
     28 O          62.9979   84.9449    8.1055 O.2     1  UNL1       -0.2749
@<TRIPOS>BOND
     1    24    25    1
     2    25    26    1
     3    25    27   am
     4    27    28    2
     5    21    27    1
     6    21    22    1
     7    22    23    1
     8    23     1    1
     9     1     2   ar
    10     2     3   ar
    11     3     4   ar
    12     4     7    1
    13     7     8   ar
    14     8     9   ar
    15     9    10   ar
    16    10    11    1
    17    10    12   ar
    18    12    13    1
    19    13    14    1
    20    14    15   ar
    21    15    16   ar
    22    16    17   ar
    23    17    18    1
    24    17    19   ar
    25    19    20   ar
    26     4     5   ar
    27     5     6   ar
    28    23    21    1
    29     6     1   ar
    30    12     7   ar
    31    20    14   ar
@<TRIPOS>MOLECULE
*****
 28 31 0 0 0
SMALL
GASTEIGER

@<TRIPOS>ATOM
      1 C          62.9637   88.1109   12.1094 C.ar    1  UNL1       -0.0220
      2 C          62.9577   89.5524   11.6947 C.ar    1  UNL1       -0.0042
      3 C          63.6414   90.5806   12.5463 C.ar    1  UNL1        0.0012
      4 C          64.3310   90.1673   13.8126 C.ar    1  UNL1        0.0196
      5 C          64.3370   88.7258   14.2273 C.ar    1  UNL1        0.0012
      6 C          63.6534   87.6976   13.3757 C.ar    1  UNL1       -0.0042
      7 C          65.0147   91.1957   14.6643 C.ar    1  UNL1        0.1050
      8 N          64.5217   91.7195   15.9806 N.ar    1  UNL1       -0.2234
      9 C          65.5136   92.7282   16.4790 C.ar    1  UNL1        0.1790
     10 N          66.6198   92.8278   15.4707 N.ar    1  UNL1       -0.3020
     11 C          67.8230   93.7183   15.5671 C.3     1  UNL1        0.1325
     12 C          66.3114   91.8807   14.3492 C.ar    1  UNL1        0.1108
     13 S          67.1522   91.6577   13.1272 S.3     1  UNL1       -0.0492
     14 C          67.0438   92.5947   11.9609 C.ar    1  UNL1        0.1121
     15 C          66.0562   93.7232   11.9946 C.ar    1  UNL1        0.0267
     16 C          65.9479   94.6602   10.8283 C.ar    1  UNL1        0.0150
     17 C          66.8272   94.4688    9.6283 C.ar    1  UNL1        0.0768
     18 CL         66.7189   95.4058    8.4620 Cl      1  UNL1       -0.0806
     19 C          67.8149   93.3403    9.5946 C.ar    1  UNL1        0.1107
     20 N          67.9232   92.4033   10.7608 N.ar    1  UNL1       -0.2364
     21 C          61.4849   86.7278   10.0363 C.3     1  UNL1        0.0811
     22 C          61.8910   85.6563   11.0042 C.3     1  UNL1        0.0142
     23 C          62.2800   87.0826   11.2577 C.3     1  UNL1        0.0314
     24 C          59.4338   88.8977    7.4220 C.3     1  UNL1        0.1149
     25 N          60.1273   88.4839    8.6861 N.am    1  UNL1       -0.2760
     26 C          60.1567   89.4122    9.8639 C.3     1  UNL1        0.1149
     27 C          60.7915   87.1417    8.7723 C.2     1  UNL1        0.2256
     28 O          60.7621   86.2133    7.5944 O.2     1  UNL1       -0.2749
@<TRIPOS>BOND
     1    24    25    1
     2    25    26    1
     3    25    27   am
     4    27    28    2
     5    21    27    1
     6    21    22    1
     7    22    23    1
     8    23     1    1
     9     1     2   ar
    10     2     3   ar
    11     3     4   ar
    12     4     7    1
    13     7     8   ar
    14     8     9   ar
    15     9    10   ar
    16    10    11    1
    17    10    12   ar
    18    12    13    1
    19    13    14    1
    20    14    15   ar
    21    15    16   ar
    22    16    17   ar
    23    17    18    1
    24    17    19   ar
    25    19    20   ar
    26     4     5   ar
    27     5     6   ar
    28    23    21    1
    29     6     1   ar
    30    12     7   ar
    31    20    14   ar
@<TRIPOS>MOLECULE
*****
 28 31 0 0 0
SMALL
GASTEIGER

@<TRIPOS>ATOM
      1 C          62.5855   89.7764   11.2876 C.ar    1  UNL1       -0.0220
      2 C          63.1636   91.1287   10.9929 C.ar    1  UNL1       -0.0042
      3 C          64.1337   91.7546   11.9506 C.ar    1  UNL1        0.0012
      4 C          64.5257   91.0280   13.2030 C.ar    1  UNL1        0.0196
      5 C          63.9476   89.6757   13.4977 C.ar    1  UNL1        0.0012
      6 C          62.9775   89.0499   12.5400 C.ar    1  UNL1       -0.0042
      7 C          65.4958   91.6539   14.1607 C.ar    1  UNL1        0.1050
      8 N          65.1916   92.0945   15.5619 N.ar    1  UNL1       -0.2234
      9 C          66.4482   92.6620   16.1526 C.ar    1  UNL1        0.1790
     10 N          67.5291   92.5722   15.1163 N.ar    1  UNL1       -0.3020
     11 C          68.9492   93.0257   15.2821 C.3     1  UNL1        0.1325
     12 C          66.9405   91.9492   13.8853 C.ar    1  UNL1        0.1108
     13 S          67.6687   91.6704   12.6040 S.3     1  UNL1       -0.0492
     14 C          67.5645   92.6319   11.4575 C.ar    1  UNL1        0.1121
     15 C          68.1381   92.2693   10.1198 C.ar    1  UNL1        0.0267
     16 C          68.0338   93.2309    8.9734 C.ar    1  UNL1        0.0150
     17 C          67.3560   94.5553    9.1646 C.ar    1  UNL1        0.0768
     18 CL         67.2518   95.5170    8.0182 Cl      1  UNL1       -0.0806
     19 C          66.7824   94.9180   10.5023 C.ar    1  UNL1        0.1107
     20 N          66.8866   93.9564   11.6487 N.ar    1  UNL1       -0.2364
     21 C          61.2654   88.0576    9.3639 C.3     1  UNL1        0.0811
     22 C          60.2850   89.1594    9.6370 C.3     1  UNL1        0.0142
     23 C          61.6154   89.1505   10.3298 C.3     1  UNL1        0.0314
     24 C          60.9876   84.8438    7.0520 C.3     1  UNL1        0.1149
     25 N          60.6235   86.1110    7.7674 N.am    1  UNL1       -0.2760
     26 C          59.2535   86.6988    7.6016 C.3     1  UNL1        0.1149
     27 C          61.6295   86.7904    8.6486 C.2     1  UNL1        0.2256
     28 O          62.9995   86.2026    8.8144 O.2     1  UNL1       -0.2749
@<TRIPOS>BOND
     1    24    25    1
     2    25    26    1
     3    25    27   am
     4    27    28    2
     5    21    27    1
     6    21    22    1
     7    22    23    1
     8    23     1    1
     9     1     2   ar
    10     2     3   ar
    11     3     4   ar
    12     4     7    1
    13     7     8   ar
    14     8     9   ar
    15     9    10   ar
    16    10    11    1
    17    10    12   ar
    18    12    13    1
    19    13    14    1
    20    14    15   ar
    21    15    16   ar
    22    16    17   ar
    23    17    18    1
    24    17    19   ar
    25    19    20   ar
    26     4     5   ar
    27     5     6   ar
    28    23    21    1
    29     6     1   ar
    30    12     7   ar
    31    20    14   ar
@<TRIPOS>MOLECULE
*****
 28 31 0 0 0
SMALL
GASTEIGER

@<TRIPOS>ATOM
      1 C          63.7633   90.2912   12.1862 C.ar    1  UNL1       -0.0220
      2 C          63.2526   90.9120   10.9198 C.ar    1  UNL1       -0.0042
      3 C          62.3768   90.1188    9.9959 C.ar    1  UNL1        0.0012
      4 C          62.0117   88.7048   10.3383 C.ar    1  UNL1        0.0196
      5 C          62.5224   88.0840   11.6047 C.ar    1  UNL1        0.0012
      6 C          63.3982   88.8772   12.5286 C.ar    1  UNL1       -0.0042
      7 C          61.1358   87.9116    9.4143 C.ar    1  UNL1        0.1050
      8 N          59.7256   88.2488    9.0302 N.ar    1  UNL1       -0.2234
      9 C          59.2346   87.1876    8.0907 C.ar    1  UNL1        0.1790
     10 N          60.3415   86.1944    7.8941 N.ar    1  UNL1       -0.3020
     11 C          60.2835   84.9690    7.0310 C.3     1  UNL1        0.1325
     12 C          61.5165   86.6419    8.7121 C.ar    1  UNL1        0.1108
     13 S          62.8397   85.9425    8.8106 S.3     1  UNL1       -0.0492
     14 C          63.0305   84.8347    9.8037 C.ar    1  UNL1        0.1121
     15 C          63.9273   83.6783    9.4744 C.ar    1  UNL1        0.0267
     16 C          64.1180   82.5705   10.4677 C.ar    1  UNL1        0.0150
     17 C          63.4119   82.6191   11.7902 C.ar    1  UNL1        0.0768
     18 CL         63.6026   81.5114   12.7834 Cl      1  UNL1       -0.0806
     19 C          62.5151   83.7755   12.1195 C.ar    1  UNL1        0.1107
     20 N          62.3244   84.8833   11.1263 N.ar    1  UNL1       -0.2364
     21 C          65.4748   92.2997   13.3838 C.3     1  UNL1        0.0811
     22 C          65.3205   91.2430   14.4371 C.3     1  UNL1        0.0142
     23 C          64.6392   91.0844   13.1102 C.3     1  UNL1        0.0314
     24 C          66.7817   95.2071   11.0197 C.3     1  UNL1        0.1149
     25 N          66.2102   93.8953   11.4699 N.am    1  UNL1       -0.2760
     26 C          65.8026   92.8674   10.4563 C.3     1  UNL1        0.1149
     27 C          66.0463   93.6114   12.9336 C.2     1  UNL1        0.2256
     28 O          66.4539   94.6394   13.9472 O.2     1  UNL1       -0.2749
@<TRIPOS>BOND
     1    24    25    1
     2    25    26    1
     3    25    27   am
     4    27    28    2
     5    21    27    1
     6    21    22    1
     7    22    23    1
     8    23     1    1
     9     1     2   ar
    10     2     3   ar
    11     3     4   ar
    12     4     7    1
    13     7     8   ar
    14     8     9   ar
    15     9    10   ar
    16    10    11    1
    17    10    12   ar
    18    12    13    1
    19    13    14    1
    20    14    15   ar
    21    15    16   ar
    22    16    17   ar
    23    17    18    1
    24    17    19   ar
    25    19    20   ar
    26     4     5   ar
    27     5     6   ar
    28    23    21    1
    29     6     1   ar
    30    12     7   ar
    31    20    14   ar
@<TRIPOS>MOLECULE
*****
 28 31 0 0 0
SMALL
GASTEIGER

@<TRIPOS>ATOM
      1 C          63.8302   90.1264   12.6722 C.ar    1  UNL1       -0.0220
      2 C          63.3521   90.8413   11.4433 C.ar    1  UNL1       -0.0042
      3 C          62.5204   90.1143   10.4286 C.ar    1  UNL1        0.0012
      4 C          62.1667   88.6724   10.6428 C.ar    1  UNL1        0.0196
      5 C          62.6448   87.9575   11.8717 C.ar    1  UNL1        0.0012
      6 C          63.4765   88.6845   12.8864 C.ar    1  UNL1       -0.0042
      7 C          61.3350   87.9454    9.6280 C.ar    1  UNL1        0.1050
      8 N          59.9634   88.3399    9.1662 N.ar    1  UNL1       -0.2234
      9 C          59.5095   87.3347    8.1497 C.ar    1  UNL1        0.1790
     10 N          60.6006   86.3188    7.9832 N.ar    1  UNL1       -0.3020
     11 C          60.5690   85.1335    7.0644 C.3     1  UNL1        0.1325
     12 C          61.7288   86.6963    8.8968 C.ar    1  UNL1        0.1108
     13 S          63.0234   85.9547    9.0521 S.3     1  UNL1       -0.0492
     14 C          63.1031   84.7680    9.9658 C.ar    1  UNL1        0.1121
     15 C          62.4034   84.7943   11.2923 C.ar    1  UNL1        0.0267
     16 C          62.4832   83.6074   12.2061 C.ar    1  UNL1        0.0150
     17 C          63.2629   82.3942   11.7934 C.ar    1  UNL1        0.0768
     18 CL         63.3427   81.2073   12.7071 Cl      1  UNL1       -0.0806
     19 C          63.9626   82.3679   10.4669 C.ar    1  UNL1        0.1107
     20 N          63.8828   83.5547    9.5531 N.ar    1  UNL1       -0.2364
     21 C          65.9478   91.5212   14.0748 C.3     1  UNL1        0.0811
     22 C          64.8165   91.4448   15.0568 C.3     1  UNL1        0.0142
     23 C          64.6619   90.8534   13.6870 C.3     1  UNL1        0.0314
     24 C          69.7039   92.7369   14.4806 C.3     1  UNL1        0.1149
     25 N          68.3082   92.3072   14.8237 N.am    1  UNL1       -0.2760
     26 C          67.8775   92.2338   16.2586 C.3     1  UNL1        0.1149
     27 C          67.3434   91.9509   13.7318 C.2     1  UNL1        0.2256
     28 O          67.7742   92.0243   12.2968 O.2     1  UNL1       -0.2749
@<TRIPOS>BOND
     1    24    25    1
     2    25    26    1
     3    25    27   am
     4    27    28    2
     5    21    27    1
     6    21    22    1
     7    22    23    1
     8    23     1    1
     9     1     2   ar
    10     2     3   ar
    11     3     4   ar
    12     4     7    1
    13     7     8   ar
    14     8     9   ar
    15     9    10   ar
    16    10    11    1
    17    10    12   ar
    18    12    13    1
    19    13    14    1
    20    14    15   ar
    21    15    16   ar
    22    16    17   ar
    23    17    18    1
    24    17    19   ar
    25    19    20   ar
    26     4     5   ar
    27     5     6   ar
    28    23    21    1
    29     6     1   ar
    30    12     7   ar
    31    20    14   ar
@<TRIPOS>MOLECULE
*****
 28 31 0 0 0
SMALL
GASTEIGER

@<TRIPOS>ATOM
      1 C          64.3179   88.6189   14.1184 C.ar    1  UNL1       -0.0220
      2 C          63.5303   88.2223   12.9050 C.ar    1  UNL1       -0.0042
      3 C          63.1860   86.7810   12.6725 C.ar    1  UNL1        0.0012
      4 C          63.6292   85.7363   13.6534 C.ar    1  UNL1        0.0196
      5 C          64.4168   86.1329   14.8668 C.ar    1  UNL1        0.0012
      6 C          64.7611   87.5742   15.0993 C.ar    1  UNL1       -0.0042
      7 C          63.2849   84.2950   13.4209 C.ar    1  UNL1        0.1050
      8 N          62.8154   83.3217   14.4613 N.ar    1  UNL1       -0.2234
      9 C          62.5899   81.9991   13.7906 C.ar    1  UNL1        0.1790
     10 N          62.9200   82.1550   12.3356 N.ar    1  UNL1       -0.3020
     11 C          62.8354   81.0805   11.2923 C.3     1  UNL1        0.1325
     12 C          63.3495   83.5739   12.1072 C.ar    1  UNL1        0.1108
     13 S          63.7698   84.1674   10.7953 S.3     1  UNL1       -0.0492
     14 C          62.7622   84.8652    9.9306 C.ar    1  UNL1        0.1121
     15 C          62.9157   84.8503    8.4385 C.ar    1  UNL1        0.0267
     16 C          61.9081   85.5481    7.5739 C.ar    1  UNL1        0.0150
     17 C          60.7469   86.2609    8.2012 C.ar    1  UNL1        0.0768
     18 CL         59.7392   86.9587    7.3366 Cl      1  UNL1       -0.0806
     19 C          60.5934   86.2758    9.6933 C.ar    1  UNL1        0.1107
     20 N          61.6010   85.5780   10.5579 N.ar    1  UNL1       -0.2364
     21 C          65.2957   91.3365   13.8820 C.3     1  UNL1        0.0811
     22 C          64.6252   91.2804   15.2226 C.3     1  UNL1        0.0142
     23 C          64.6622   90.0602   14.3509 C.3     1  UNL1        0.0314
     24 C          66.2135   93.0549   10.4244 C.3     1  UNL1        0.1149
     25 N          65.4605   92.2856   11.4692 N.am    1  UNL1       -0.2760
     26 C          64.1197   91.6962   11.1457 C.3     1  UNL1        0.1149
     27 C          66.0486   92.1057   12.8373 C.2     1  UNL1        0.2256
     28 O          67.3895   92.6951   13.1608 O.2     1  UNL1       -0.2749
@<TRIPOS>BOND
     1    24    25    1
     2    25    26    1
     3    25    27   am
     4    27    28    2
     5    21    27    1
     6    21    22    1
     7    22    23    1
     8    23     1    1
     9     1     2   ar
    10     2     3   ar
    11     3     4   ar
    12     4     7    1
    13     7     8   ar
    14     8     9   ar
    15     9    10   ar
    16    10    11    1
    17    10    12   ar
    18    12    13    1
    19    13    14    1
    20    14    15   ar
    21    15    16   ar
    22    16    17   ar
    23    17    18    1
    24    17    19   ar
    25    19    20   ar
    26     4     5   ar
    27     5     6   ar
    28    23    21    1
    29     6     1   ar
    30    12     7   ar
    31    20    14   ar
@<TRIPOS>MOLECULE
*****
 28 31 0 0 0
SMALL
GASTEIGER

@<TRIPOS>ATOM
      1 C          64.2028   91.5421   11.6417 C.ar    1  UNL1       -0.0220
      2 C          63.7704   91.8337   10.2353 C.ar    1  UNL1       -0.0042
      3 C          62.7670   90.9465    9.5600 C.ar    1  UNL1        0.0012
      4 C          62.1960   89.7678   10.2911 C.ar    1  UNL1        0.0196
      5 C          62.6283   89.4762   11.6975 C.ar    1  UNL1        0.0012
      6 C          63.6317   90.3634   12.3728 C.ar    1  UNL1       -0.0042
      7 C          61.1925   88.8806    9.6157 C.ar    1  UNL1        0.1050
      8 N          59.7577   89.2214    9.3416 N.ar    1  UNL1       -0.2234
      9 C          59.1261   88.0484    8.6524 C.ar    1  UNL1        0.1790
     10 N          60.1707   86.9826    8.5005 N.ar    1  UNL1       -0.3020
     11 C          59.9728   85.6384    7.8649 C.3     1  UNL1        0.1325
     12 C          61.4477   87.4969    9.0959 C.ar    1  UNL1        0.1108
     13 S          62.7512   86.7574    9.1602 S.3     1  UNL1       -0.0492
     14 C          62.8777   85.5337   10.0183 C.ar    1  UNL1        0.1121
     15 C          62.3770   85.5538   11.4321 C.ar    1  UNL1        0.0267
     16 C          62.5036   84.3300   12.2902 C.ar    1  UNL1        0.0150
     17 C          63.1310   83.0860   11.7344 C.ar    1  UNL1        0.0768
     18 CL         63.2576   81.8622   12.5925 Cl      1  UNL1       -0.0806
     19 C          63.6317   83.0658   10.3206 C.ar    1  UNL1        0.1107
     20 N          63.5051   84.2896    9.4626 N.ar    1  UNL1       -0.2364
     21 C          66.0207   92.7845   13.5256 C.3     1  UNL1        0.0811
     22 C          66.1296   93.6107   12.2784 C.3     1  UNL1        0.0142
     23 C          65.2062   92.4293   12.3171 C.3     1  UNL1        0.0314
     24 C          68.2836   92.0496   16.7020 C.3     1  UNL1        0.1149
     25 N          67.8763   92.3216   15.2841 N.am    1  UNL1       -0.2760
     26 C          68.9172   92.4025   14.2071 C.3     1  UNL1        0.1149
     27 C          66.4281   92.5126   14.9434 C.2     1  UNL1        0.2256
     28 O          65.3872   92.4316   16.0204 O.2     1  UNL1       -0.2749
@<TRIPOS>BOND
     1    24    25    1
     2    25    26    1
     3    25    27   am
     4    27    28    2
     5    21    27    1
     6    21    22    1
     7    22    23    1
     8    23     1    1
     9     1     2   ar
    10     2     3   ar
    11     3     4   ar
    12     4     7    1
    13     7     8   ar
    14     8     9   ar
    15     9    10   ar
    16    10    11    1
    17    10    12   ar
    18    12    13    1
    19    13    14    1
    20    14    15   ar
    21    15    16   ar
    22    16    17   ar
    23    17    18    1
    24    17    19   ar
    25    19    20   ar
    26     4     5   ar
    27     5     6   ar
    28    23    21    1
    29     6     1   ar
    30    12     7   ar
    31    20    14   ar
@<TRIPOS>MOLECULE
*****
 28 31 0 0 0
SMALL
GASTEIGER

@<TRIPOS>ATOM
      1 C          65.3481   92.5256   12.8026 C.ar    1  UNL1       -0.0220
      2 C          64.1787   91.6817   12.3901 C.ar    1  UNL1       -0.0042
      3 C          63.6572   90.6203   13.3129 C.ar    1  UNL1        0.0012
      4 C          64.3052   90.4029   14.6481 C.ar    1  UNL1        0.0196
      5 C          65.4746   91.2469   15.0606 C.ar    1  UNL1        0.0012
      6 C          65.9960   92.3083   14.1378 C.ar    1  UNL1       -0.0042
      7 C          63.7837   89.3415   15.5709 C.ar    1  UNL1        0.1050
      8 N          63.0097   89.5744   16.8346 N.ar    1  UNL1       -0.2234
      9 C          62.6923   88.2377   17.4367 C.ar    1  UNL1        0.1790
     10 N          63.2701   87.1788   16.5452 N.ar    1  UNL1       -0.3020
     11 C          63.1878   85.6976   16.7678 C.3     1  UNL1        0.1325
     12 C          63.9446   87.8609   15.3921 C.ar    1  UNL1        0.1108
     13 S          64.6553   87.1817   14.2591 S.3     1  UNL1       -0.0492
     14 C          64.1091   85.9070   13.6877 C.ar    1  UNL1        0.1121
     15 C          64.7175   84.5911   14.0726 C.ar    1  UNL1        0.0267
     16 C          64.1712   83.3164   13.5011 C.ar    1  UNL1        0.0150
     17 C          63.0165   83.3576   12.5445 C.ar    1  UNL1        0.0768
     18 CL         62.4702   82.0829   11.9730 Cl      1  UNL1       -0.0806
     19 C          62.4081   84.6735   12.1596 C.ar    1  UNL1        0.1107
     20 N          62.9543   85.9481   12.7311 N.ar    1  UNL1       -0.2364
     21 C          66.6337   93.9780   10.6496 C.3     1  UNL1        0.0811
     22 C          66.0087   95.0345   11.5116 C.3     1  UNL1        0.0142
     23 C          65.8696   93.5871   11.8797 C.3     1  UNL1        0.0314
     24 C          69.1673   92.0337    8.2936 C.3     1  UNL1        0.1149
     25 N          68.3652   92.4180    9.5016 N.am    1  UNL1       -0.2760
     26 C          68.4928   91.6265   10.7693 C.3     1  UNL1        0.1149
     27 C          67.4357   93.5937    9.4417 C.2     1  UNL1        0.2256
     28 O          67.3082   94.3852    8.1738 O.2     1  UNL1       -0.2749
@<TRIPOS>BOND
     1    24    25    1
     2    25    26    1
     3    25    27   am
     4    27    28    2
     5    21    27    1
     6    21    22    1
     7    22    23    1
     8    23     1    1
     9     1     2   ar
    10     2     3   ar
    11     3     4   ar
    12     4     7    1
    13     7     8   ar
    14     8     9   ar
    15     9    10   ar
    16    10    11    1
    17    10    12   ar
    18    12    13    1
    19    13    14    1
    20    14    15   ar
    21    15    16   ar
    22    16    17   ar
    23    17    18    1
    24    17    19   ar
    25    19    20   ar
    26     4     5   ar
    27     5     6   ar
    28    23    21    1
    29     6     1   ar
    30    12     7   ar
    31    20    14   ar
@<TRIPOS>MOLECULE
*****
 28 31 0 0 0
SMALL
GASTEIGER

@<TRIPOS>ATOM
      1 C          63.1572   87.2200   12.3637 C.ar    1  UNL1       -0.0220
      2 C          62.9649   88.6411   11.9240 C.ar    1  UNL1       -0.0042
      3 C          63.4320   89.7665   12.7987 C.ar    1  UNL1        0.0012
      4 C          64.0914   89.4709   14.1131 C.ar    1  UNL1        0.0196
      5 C          64.2837   88.0498   14.5529 C.ar    1  UNL1        0.0012
      6 C          63.8166   86.9243   13.6782 C.ar    1  UNL1       -0.0042
      7 C          64.5585   90.5964   14.9879 C.ar    1  UNL1        0.1050
      8 N          64.0039   90.9550   16.3346 N.ar    1  UNL1       -0.2234
      9 C          64.7648   92.1411   16.8485 C.ar    1  UNL1        0.1790
     10 N          65.7898   92.5156   15.8193 N.ar    1  UNL1       -0.3020
     11 C          66.7701   93.6463   15.9220 C.3     1  UNL1        0.1325
     12 C          65.6623   91.5609   14.6694 C.ar    1  UNL1        0.1108
     13 S          66.4928   91.5693   13.4203 S.3     1  UNL1       -0.0492
     14 C          66.3209   92.6670   12.4127 C.ar    1  UNL1        0.1121
     15 C          66.5368   94.0956   12.8156 C.ar    1  UNL1        0.0267
     16 C          66.3649   95.1933   11.8078 C.ar    1  UNL1        0.0150
     17 C          65.9771   94.8624   10.3971 C.ar    1  UNL1        0.0768
     18 CL         65.8052   95.9600    9.3894 Cl      1  UNL1       -0.0806
     19 C          65.7612   93.4337    9.9942 C.ar    1  UNL1        0.1107
     20 N          65.9331   92.3361   11.0019 N.ar    1  UNL1       -0.2364
     21 C          62.7057   84.6393   11.1253 C.3     1  UNL1        0.0811
     22 C          61.8654   85.6002   10.3377 C.3     1  UNL1        0.0142
     23 C          62.6901   86.0945   11.4890 C.3     1  UNL1        0.0314
     24 C          63.6229   81.2594   12.9921 C.3     1  UNL1        0.1149
     25 N          63.1287   82.6543   12.7474 N.am    1  UNL1       -0.2760
     26 C          62.5632   83.4592   13.8798 C.3     1  UNL1        0.1149
     27 C          63.1999   83.2444   11.3701 C.2     1  UNL1        0.2256
     28 O          63.7654   82.4395   10.2377 O.2     1  UNL1       -0.2749
@<TRIPOS>BOND
     1    24    25    1
     2    25    26    1
     3    25    27   am
     4    27    28    2
     5    21    27    1
     6    21    22    1
     7    22    23    1
     8    23     1    1
     9     1     2   ar
    10     2     3   ar
    11     3     4   ar
    12     4     7    1
    13     7     8   ar
    14     8     9   ar
    15     9    10   ar
    16    10    11    1
    17    10    12   ar
    18    12    13    1
    19    13    14    1
    20    14    15   ar
    21    15    16   ar
    22    16    17   ar
    23    17    18    1
    24    17    19   ar
    25    19    20   ar
    26     4     5   ar
    27     5     6   ar
    28    23    21    1
    29     6     1   ar
    30    12     7   ar
    31    20    14   ar
