@<TRIPOS>MOLECULE
*****
 29 33 0 0 0
SMALL
GASTEIGER

@<TRIPOS>ATOM
      1 C          61.5207   88.5986   10.1213 C.ar    1  UNL1       -0.0189
      2 C          62.8021   89.2207    9.6511 C.ar    1  UNL1       -0.0039
      3 C          63.6294   90.0398   10.5968 C.ar    1  UNL1        0.0009
      4 C          63.1754   90.2370   12.0128 C.ar    1  UNL1        0.0161
      5 C          61.8940   89.6149   12.4831 C.ar    1  UNL1        0.0009
      6 C          61.0667   88.7957   11.5372 C.ar    1  UNL1       -0.0039
      7 C          64.0027   91.0562   12.9586 C.2     1  UNL1        0.0973
      8 N          63.8500   90.8739   14.4396 N.2     1  UNL1       -0.2014
      9 C          64.6773   91.6930   15.3853 C.2     1  UNL1        0.3387
     10 N          65.6574   92.6946   14.8500 N.2     1  UNL1       -0.0102
     11 C          65.8102   92.8768   13.3690 C.2     1  UNL1        0.3832
     12 N          66.6878   93.7800   12.5542 N.2     1  UNL1       -0.0105
     13 C          66.4029   93.5189   11.1048 C.2     1  UNL1        0.3352
     14 N          65.3492   92.4545   11.0239 N.2     1  UNL1       -0.2087
     15 C          64.9828   92.0576   12.4233 C.3     1  UNL1        0.2577
     16 C          60.6934   87.7794    9.1756 C.3     1  UNL1        0.0404
     17 C          60.1693   89.1492    8.8607 C.3     1  UNL1        0.0252
     18 C          59.0996   89.3228    7.8235 C.3     1  UNL1        0.0692
     19 N          58.5541   88.1267    7.1012 N.3     1  UNL1       -0.2974
     20 C          59.0783   86.7570    7.4160 C.3     1  UNL1        0.0692
     21 C          60.1478   86.5833    8.4532 C.3     1  UNL1        0.0252
     22 H          58.7180   88.2833    6.1067 H       1  UNL1        0.1232
     23 CL         63.9392   83.4385   11.7487 Cl      1  UNL1       -0.0822
     24 C          63.1278   84.5237   11.1054 C.ar    1  UNL1        0.0577
     25 C          63.3167   84.8397    9.6513 C.ar    1  UNL1        0.0111
     26 C          62.5053   85.9249    9.0080 C.ar    1  UNL1       -0.0031
     27 C          61.5049   86.6942    9.8188 C.ar    1  UNL1       -0.0189
     28 C          61.3160   86.3782   11.2730 C.ar    1  UNL1       -0.0031
     29 C          62.1274   85.2930   11.9162 C.ar    1  UNL1        0.0111
@<TRIPOS>BOND
     1    23    24    1
     2    24    25   ar
     3    25    26   ar
     4    26    27   ar
     5    27    16    1
     6    16     1    1
     7     1     2   ar
     8     2     3   ar
     9     3     4   ar
    10     4     7    1
    11     7     8    2
    12     8     9    1
    13     9    10    2
    14    10    11    1
    15    11    12    2
    16    12    13    1
    17    13    14    2
    18    14    15    1
    19     4     5   ar
    20     5     6   ar
    21    16    17    1
    22    17    18    1
    23    18    19    1
    24    19    20    1
    25    20    21    1
    26    27    28   ar
    27    28    29   ar
    28    29    24   ar
    29    21    16    1
    30     6     1   ar
    31    15     7    1
    32    15    11    1
    33    19    22    1
@<TRIPOS>MOLECULE
*****
 29 33 0 0 0
SMALL
GASTEIGER

@<TRIPOS>ATOM
      1 C          65.1240   91.7042   13.0427 C.ar    1  UNL1       -0.0189
      2 C          64.6317   92.2035   11.7166 C.ar    1  UNL1       -0.0039
      3 C          63.6410   91.3958   10.9319 C.ar    1  UNL1        0.0009
      4 C          63.1425   90.0885   11.4731 C.ar    1  UNL1        0.0161
      5 C          63.6348   89.5892   12.7991 C.ar    1  UNL1        0.0009
      6 C          64.6256   90.3971   13.5839 C.ar    1  UNL1       -0.0039
      7 C          62.1518   89.2807   10.6883 C.2     1  UNL1        0.0973
      8 N          61.2631   89.9533    9.6844 N.2     1  UNL1       -0.2014
      9 C          60.2724   89.1456    8.8996 C.2     1  UNL1        0.3387
     10 N          60.1703   87.6651    9.1187 N.2     1  UNL1       -0.0102
     11 C          61.0590   86.9926   10.1226 C.2     1  UNL1        0.3832
     12 N          61.1847   85.5607   10.5517 N.2     1  UNL1       -0.0105
     13 C          62.2532   85.4836   11.6016 C.2     1  UNL1        0.3352
     14 N          62.7878   86.8678   11.8215 N.2     1  UNL1       -0.2087
     15 C          62.0497   87.8004   10.9074 C.3     1  UNL1        0.2577
     16 C          66.1147   92.5120   13.8274 C.3     1  UNL1        0.0404
     17 C          65.3228   91.9093   14.9497 C.3     1  UNL1        0.0252
     18 C          65.6772   92.2263   16.3724 C.3     1  UNL1        0.0692
     19 N          66.8234   93.1460   16.6727 N.3     1  UNL1       -0.2974
     20 C          67.6153   93.7487   15.5504 C.3     1  UNL1        0.0692
     21 C          67.2610   93.4318   14.1278 C.3     1  UNL1        0.0252
     22 H          67.4811   92.6190   17.2473 H       1  UNL1        0.1232
     23 CL         67.9060   93.8007    8.2479 Cl      1  UNL1       -0.0822
     24 C          67.4582   93.4786    9.6428 C.ar    1  UNL1        0.0577
     25 C          66.6357   94.4680   10.4138 C.ar    1  UNL1        0.0111
     26 C          66.1878   94.1458   11.8087 C.ar    1  UNL1       -0.0031
     27 C          66.5625   92.8342   12.4325 C.ar    1  UNL1       -0.0189
     28 C          67.3851   91.8447   11.6615 C.ar    1  UNL1       -0.0031
     29 C          67.8329   92.1669   10.2667 C.ar    1  UNL1        0.0111
@<TRIPOS>BOND
     1    23    24    1
     2    24    25   ar
     3    25    26   ar
     4    26    27   ar
     5    27    16    1
     6    16     1    1
     7     1     2   ar
     8     2     3   ar
     9     3     4   ar
    10     4     7    1
    11     7     8    2
    12     8     9    1
    13     9    10    2
    14    10    11    1
    15    11    12    2
    16    12    13    1
    17    13    14    2
    18    14    15    1
    19     4     5   ar
    20     5     6   ar
    21    16    17    1
    22    17    18    1
    23    18    19    1
    24    19    20    1
    25    20    21    1
    26    27    28   ar
    27    28    29   ar
    28    29    24   ar
    29    21    16    1
    30     6     1   ar
    31    15     7    1
    32    15    11    1
    33    19    22    1
@<TRIPOS>MOLECULE
*****
 29 33 0 0 0
SMALL
GASTEIGER

@<TRIPOS>ATOM
      1 C          61.4829   88.5472   10.0720 C.ar    1  UNL1       -0.0189
      2 C          62.8193   89.0830    9.6513 C.ar    1  UNL1       -0.0039
      3 C          63.6343   89.9014   10.6082 C.ar    1  UNL1        0.0009
      4 C          63.1130   90.1841   11.9861 C.ar    1  UNL1        0.0161
      5 C          61.7766   89.6484   12.4069 C.ar    1  UNL1        0.0009
      6 C          60.9616   88.8299   11.4498 C.ar    1  UNL1       -0.0039
      7 C          63.9280   91.0025   12.9431 C.2     1  UNL1        0.0973
      8 N          64.9089   92.0103   12.4214 N.2     1  UNL1       -0.2014
      9 C          65.7240   92.8287   13.3783 C.2     1  UNL1        0.3387
     10 N          65.5581   92.6394   14.8571 N.2     1  UNL1       -0.0102
     11 C          64.5772   91.6316   15.3788 C.2     1  UNL1        0.3832
     12 N          64.1994   91.2273   16.7730 N.2     1  UNL1       -0.0105
     13 C          63.1509   90.1589   16.6776 C.2     1  UNL1        0.3352
     14 N          62.8806   89.9030   15.2245 N.2     1  UNL1       -0.2087
     15 C          63.7622   90.8132   14.4218 C.3     1  UNL1        0.2577
     16 C          60.6679   87.7288    9.1150 C.3     1  UNL1        0.0404
     17 C          60.1391   89.0975    8.8032 C.3     1  UNL1        0.0252
     18 C          59.0772   89.2710    7.7581 C.3     1  UNL1        0.0692
     19 N          58.5441   88.0760    7.0248 N.3     1  UNL1       -0.2974
     20 C          59.0729   86.7074    7.3366 C.3     1  UNL1        0.0692
     21 C          60.1348   86.5338    8.3816 C.3     1  UNL1        0.0252
     22 H          58.7154   88.2388    6.0325 H       1  UNL1        0.1232
     23 CL         63.9154   83.3913   11.6917 Cl      1  UNL1       -0.0822
     24 C          63.1036   84.4757   11.0475 C.ar    1  UNL1        0.0577
     25 C          63.2851   84.7837    9.5907 C.ar    1  UNL1        0.0111
     26 C          62.4732   85.8681    8.9466 C.ar    1  UNL1       -0.0031
     27 C          61.4798   86.6445    9.7592 C.ar    1  UNL1       -0.0189
     28 C          61.2983   86.3364   11.2160 C.ar    1  UNL1       -0.0031
     29 C          62.1101   85.2521   11.8601 C.ar    1  UNL1        0.0111
@<TRIPOS>BOND
     1    23    24    1
     2    24    25   ar
     3    25    26   ar
     4    26    27   ar
     5    27    16    1
     6    16     1    1
     7     1     2   ar
     8     2     3   ar
     9     3     4   ar
    10     4     7    1
    11     7     8    2
    12     8     9    1
    13     9    10    2
    14    10    11    1
    15    11    12    2
    16    12    13    1
    17    13    14    2
    18    14    15    1
    19     4     5   ar
    20     5     6   ar
    21    16    17    1
    22    17    18    1
    23    18    19    1
    24    19    20    1
    25    20    21    1
    26    27    28   ar
    27    28    29   ar
    28    29    24   ar
    29    21    16    1
    30     6     1   ar
    31    15     7    1
    32    15    11    1
    33    19    22    1
@<TRIPOS>MOLECULE
*****
 29 33 0 0 0
SMALL
GASTEIGER

@<TRIPOS>ATOM
      1 C          61.1992   87.2091    9.6125 C.ar    1  UNL1       -0.0189
      2 C          62.1999   86.3347    8.9167 C.ar    1  UNL1       -0.0039
      3 C          62.8264   85.1840    9.6469 C.ar    1  UNL1        0.0009
      4 C          62.4523   84.9076   11.0731 C.ar    1  UNL1        0.0161
      5 C          61.4516   85.7820   11.7689 C.ar    1  UNL1        0.0009
      6 C          60.8251   86.9328   11.0385 C.ar    1  UNL1       -0.0039
      7 C          63.0788   83.7569   11.8033 C.2     1  UNL1        0.0973
      8 N          63.6576   82.6064   11.0343 N.2     1  UNL1       -0.2014
      9 C          64.2841   81.4557   11.7645 C.2     1  UNL1        0.3387
     10 N          64.3319   81.4554   13.2638 N.2     1  UNL1       -0.0102
     11 C          63.7532   82.6059   14.0327 C.2     1  UNL1        0.3832
     12 N          63.6554   82.8819   15.5039 N.2     1  UNL1       -0.0105
     13 C          62.9683   84.2032   15.6829 C.2     1  UNL1        0.3352
     14 N          62.6416   84.7439   14.3224 N.2     1  UNL1       -0.2087
     15 C          63.1267   83.7567   13.3025 C.3     1  UNL1        0.2577
     16 C          60.5727   88.3598    8.8823 C.3     1  UNL1        0.0404
     17 C          60.0306   87.2151    8.0787 C.3     1  UNL1        0.0252
     18 C          59.1257   87.4800    6.9120 C.3     1  UNL1        0.0692
     19 N          58.7631   88.8894    6.5489 N.3     1  UNL1       -0.2974
     20 C          59.3052   90.0341    7.3525 C.3     1  UNL1        0.0692
     21 C          60.2100   89.7693    8.5191 C.3     1  UNL1        0.0252
     22 H          57.7461   88.9530    6.5949 H       1  UNL1        0.1232
     23 CL         63.6118   91.3399   13.1111 Cl      1  UNL1       -0.0822
     24 C          62.8520   90.5949   12.0539 C.ar    1  UNL1        0.0577
     25 C          63.5066   90.2794   10.7417 C.ar    1  UNL1        0.0111
     26 C          62.7469   89.5344    9.6845 C.ar    1  UNL1       -0.0031
     27 C          61.3325   89.1048    9.9395 C.ar    1  UNL1       -0.0189
     28 C          60.6779   89.4203   11.2517 C.ar    1  UNL1       -0.0031
     29 C          61.4376   90.1653   12.3089 C.ar    1  UNL1        0.0111
@<TRIPOS>BOND
     1    23    24    1
     2    24    25   ar
     3    25    26   ar
     4    26    27   ar
     5    27    16    1
     6    16     1    1
     7     1     2   ar
     8     2     3   ar
     9     3     4   ar
    10     4     7    1
    11     7     8    2
    12     8     9    1
    13     9    10    2
    14    10    11    1
    15    11    12    2
    16    12    13    1
    17    13    14    2
    18    14    15    1
    19     4     5   ar
    20     5     6   ar
    21    16    17    1
    22    17    18    1
    23    18    19    1
    24    19    20    1
    25    20    21    1
    26    27    28   ar
    27    28    29   ar
    28    29    24   ar
    29    21    16    1
    30     6     1   ar
    31    15     7    1
    32    15    11    1
    33    19    22    1
@<TRIPOS>MOLECULE
*****
 29 33 0 0 0
SMALL
GASTEIGER

@<TRIPOS>ATOM
      1 C          63.8074   90.2189   12.7354 C.ar    1  UNL1       -0.0189
      2 C          63.0503   90.9873   11.6931 C.ar    1  UNL1       -0.0039
      3 C          62.1664   90.2629   10.7216 C.ar    1  UNL1        0.0009
      4 C          62.0395   88.7699   10.7924 C.ar    1  UNL1        0.0161
      5 C          62.7965   88.0014   11.8347 C.ar    1  UNL1        0.0009
      6 C          63.6804   88.7259   12.8062 C.ar    1  UNL1       -0.0039
      7 C          61.1555   88.0455    9.8209 C.2     1  UNL1        0.0973
      8 N          59.7300   88.4754    9.6393 N.2     1  UNL1       -0.2014
      9 C          58.8461   87.7511    8.6679 C.2     1  UNL1        0.3387
     10 N          59.3876   86.5966    7.8779 N.2     1  UNL1       -0.0102
     11 C          60.8131   86.1666    8.0594 C.2     1  UNL1        0.3832
     12 N          61.6200   85.0727    7.4251 N.2     1  UNL1       -0.0105
     13 C          63.0027   85.1211    8.0047 C.2     1  UNL1        0.3352
     14 N          63.0503   86.2449    8.9971 N.2     1  UNL1       -0.2087
     15 C          61.6971   86.8910    9.0310 C.3     1  UNL1        0.2577
     16 C          64.6913   90.9433   13.7068 C.3     1  UNL1        0.0404
     17 C          64.8886   91.7964   12.4890 C.3     1  UNL1        0.0252
     18 C          65.7947   92.9904   12.5484 C.3     1  UNL1        0.0692
     19 N          66.5035   93.3312   13.8257 N.3     1  UNL1       -0.2974
     20 C          66.3062   92.4780   15.0435 C.3     1  UNL1        0.0692
     21 C          65.4001   91.2841   14.9842 C.3     1  UNL1        0.0252
     22 H          66.2161   94.2765   14.0787 H       1  UNL1        0.1232
     23 CL         62.6742   86.5243   17.2288 Cl      1  UNL1       -0.0822
     24 C          63.1784   87.6290   16.3483 C.ar    1  UNL1        0.0577
     25 C          62.5669   88.9960   16.4354 C.ar    1  UNL1        0.0111
     26 C          63.0712   90.1007   15.5549 C.ar    1  UNL1       -0.0031
     27 C          64.1870   89.8385   14.5873 C.ar    1  UNL1       -0.0189
     28 C          64.7985   88.4716   14.5002 C.ar    1  UNL1       -0.0031
     29 C          64.2942   87.3669   15.3807 C.ar    1  UNL1        0.0111
@<TRIPOS>BOND
     1    23    24    1
     2    24    25   ar
     3    25    26   ar
     4    26    27   ar
     5    27    16    1
     6    16     1    1
     7     1     2   ar
     8     2     3   ar
     9     3     4   ar
    10     4     7    1
    11     7     8    2
    12     8     9    1
    13     9    10    2
    14    10    11    1
    15    11    12    2
    16    12    13    1
    17    13    14    2
    18    14    15    1
    19     4     5   ar
    20     5     6   ar
    21    16    17    1
    22    17    18    1
    23    18    19    1
    24    19    20    1
    25    20    21    1
    26    27    28   ar
    27    28    29   ar
    28    29    24   ar
    29    21    16    1
    30     6     1   ar
    31    15     7    1
    32    15    11    1
    33    19    22    1
@<TRIPOS>MOLECULE
*****
 29 33 0 0 0
SMALL
GASTEIGER

@<TRIPOS>ATOM
      1 C          64.4061   90.7295   13.5542 C.ar    1  UNL1       -0.0189
      2 C          63.6626   91.2241   12.3489 C.ar    1  UNL1       -0.0039
      3 C          62.9358   90.2538   11.4656 C.ar    1  UNL1        0.0009
      4 C          62.9524   88.7888   11.7876 C.ar    1  UNL1        0.0161
      5 C          63.6958   88.2941   12.9928 C.ar    1  UNL1        0.0009
      6 C          64.4226   89.2645   13.8761 C.ar    1  UNL1       -0.0039
      7 C          62.2255   87.8185   10.9042 C.2     1  UNL1        0.0973
      8 N          62.4253   86.3432   11.0869 N.2     1  UNL1       -0.2014
      9 C          61.6985   85.3729   10.2036 C.2     1  UNL1        0.3387
     10 N          60.7718   85.8780    9.1376 N.2     1  UNL1       -0.0102
     11 C          60.5720   87.3533    8.9550 C.2     1  UNL1        0.3832
     12 N          59.7289   88.1409    7.9964 N.2     1  UNL1       -0.0105
     13 C          59.9347   89.5980    8.2873 C.2     1  UNL1        0.3352
     14 N          60.9050   89.7109    9.4257 N.2     1  UNL1       -0.2087
     15 C          61.2989   88.3236    9.8383 C.3     1  UNL1        0.2577
     16 C          65.1328   91.6997   14.4374 C.3     1  UNL1        0.0404
     17 C          64.1312   91.1584   15.4140 C.3     1  UNL1        0.0252
     18 C          64.1166   91.6583   16.8282 C.3     1  UNL1        0.0692
     19 N          65.1037   92.6996   17.2658 N.3     1  UNL1       -0.2974
     20 C          66.1053   93.2409   16.2892 C.3     1  UNL1        0.0692
     21 C          66.1199   92.7410   14.8751 C.3     1  UNL1        0.0252
     22 H          65.6338   92.2965   18.0384 H       1  UNL1        0.1232
     23 CL         68.1297   92.5172    9.3042 Cl      1  UNL1       -0.0822
     24 C          67.3805   92.3128   10.5875 C.ar    1  UNL1        0.0577
     25 C          68.0506   91.6390   11.7480 C.ar    1  UNL1        0.0111
     26 C          67.3014   91.4346   13.0313 C.ar    1  UNL1       -0.0031
     27 C          65.8820   91.9041   13.1541 C.ar    1  UNL1       -0.0189
     28 C          65.2119   92.5779   11.9936 C.ar    1  UNL1       -0.0031
     29 C          65.9611   92.7823   10.7102 C.ar    1  UNL1        0.0111
@<TRIPOS>BOND
     1    23    24    1
     2    24    25   ar
     3    25    26   ar
     4    26    27   ar
     5    27    16    1
     6    16     1    1
     7     1     2   ar
     8     2     3   ar
     9     3     4   ar
    10     4     7    1
    11     7     8    2
    12     8     9    1
    13     9    10    2
    14    10    11    1
    15    11    12    2
    16    12    13    1
    17    13    14    2
    18    14    15    1
    19     4     5   ar
    20     5     6   ar
    21    16    17    1
    22    17    18    1
    23    18    19    1
    24    19    20    1
    25    20    21    1
    26    27    28   ar
    27    28    29   ar
    28    29    24   ar
    29    21    16    1
    30     6     1   ar
    31    15     7    1
    32    15    11    1
    33    19    22    1
@<TRIPOS>MOLECULE
*****
 29 33 0 0 0
SMALL
GASTEIGER

@<TRIPOS>ATOM
      1 C          61.1662   86.9742   10.0931 C.ar    1  UNL1       -0.0189
      2 C          62.0931   85.8810    9.6503 C.ar    1  UNL1       -0.0039
      3 C          62.7561   85.0016   10.6685 C.ar    1  UNL1        0.0009
      4 C          62.4925   85.2153   12.1297 C.ar    1  UNL1        0.0161
      5 C          61.5657   86.3085   12.5725 C.ar    1  UNL1        0.0009
      6 C          60.9026   87.1879   11.5542 C.ar    1  UNL1       -0.0039
      7 C          63.1556   84.3359   13.1480 C.2     1  UNL1        0.0973
      8 N          63.9442   84.9477   14.2676 N.2     1  UNL1       -0.2014
      9 C          64.6073   84.0684   15.2858 C.2     1  UNL1        0.3387
     10 N          64.4818   82.5770   15.1845 N.2     1  UNL1       -0.0102
     11 C          63.6932   81.9652   14.0648 C.2     1  UNL1        0.3832
     12 N          63.3962   80.5386   13.7090 N.2     1  UNL1       -0.0105
     13 C          62.5495   80.5363   12.4709 C.2     1  UNL1        0.3352
     14 N          62.3232   81.9615   12.0614 N.2     1  UNL1       -0.2087
     15 C          63.0301   82.8446   13.0466 C.3     1  UNL1        0.2577
     16 C          60.5032   87.8536    9.0749 C.3     1  UNL1        0.0404
     17 C          59.9718   86.5167    8.6500 C.3     1  UNL1        0.0252
     18 C          59.0419   86.4175    7.4772 C.3     1  UNL1        0.0692
     19 N          58.6433   87.6552    6.7293 N.3     1  UNL1       -0.2974
     20 C          59.1746   88.9920    7.1542 C.3     1  UNL1        0.0692
     21 C          60.1045   89.0912    8.3269 C.3     1  UNL1        0.0252
     22 H          57.6261   87.7137    6.7776 H       1  UNL1        0.1232
     23 CL         63.5496   91.9793   12.1890 Cl      1  UNL1       -0.0822
     24 C          62.7880   90.9479   11.4104 C.ar    1  UNL1        0.0577
     25 C          63.5201   89.9909   10.5170 C.ar    1  UNL1        0.0111
     26 C          62.7585   88.9595    9.7385 C.ar    1  UNL1       -0.0031
     27 C          61.2647   88.8850    9.8534 C.ar    1  UNL1       -0.0189
     28 C          60.5326   89.8420   10.7468 C.ar    1  UNL1       -0.0031
     29 C          61.2942   90.8734   11.5254 C.ar    1  UNL1        0.0111
@<TRIPOS>BOND
     1    23    24    1
     2    24    25   ar
     3    25    26   ar
     4    26    27   ar
     5    27    16    1
     6    16     1    1
     7     1     2   ar
     8     2     3   ar
     9     3     4   ar
    10     4     7    1
    11     7     8    2
    12     8     9    1
    13     9    10    2
    14    10    11    1
    15    11    12    2
    16    12    13    1
    17    13    14    2
    18    14    15    1
    19     4     5   ar
    20     5     6   ar
    21    16    17    1
    22    17    18    1
    23    18    19    1
    24    19    20    1
    25    20    21    1
    26    27    28   ar
    27    28    29   ar
    28    29    24   ar
    29    21    16    1
    30     6     1   ar
    31    15     7    1
    32    15    11    1
    33    19    22    1
@<TRIPOS>MOLECULE
*****
 29 33 0 0 0
SMALL
GASTEIGER

@<TRIPOS>ATOM
      1 C          62.2961   93.4967    0.2206 C.ar    1  UNL1       -0.0189
      2 C          61.7771   93.0681   -1.1200 C.ar    1  UNL1       -0.0039
      3 C          62.4851   93.4975   -2.3706 C.ar    1  UNL1        0.0009
      4 C          63.7122   94.3557   -2.2808 C.ar    1  UNL1        0.0161
      5 C          64.2312   94.7842   -0.9403 C.ar    1  UNL1        0.0009
      6 C          63.5231   94.3547    0.3104 C.ar    1  UNL1       -0.0039
      7 C          64.4203   94.7851   -3.5315 C.2     1  UNL1        0.0973
      8 N          64.8554   96.2113   -3.6949 N.2     1  UNL1       -0.2014
      9 C          65.5634   96.6407   -4.9456 C.2     1  UNL1        0.3387
     10 N          65.8363   95.6441   -6.0329 N.2     1  UNL1       -0.0102
     11 C          65.4011   94.2179   -5.8695 C.2     1  UNL1        0.3832
     12 N          65.5308   93.0203   -6.7633 N.2     1  UNL1       -0.0105
     13 C          64.9030   91.8507   -6.0650 C.2     1  UNL1        0.3352
     14 N          64.3852   92.3254   -4.7396 N.2     1  UNL1       -0.2087
     15 C          64.6931   93.7885   -4.6188 C.3     1  UNL1        0.2577
     16 C          61.5881   93.0672    1.4712 C.3     1  UNL1        0.0404
     17 C          62.9229   92.4196    1.6921 C.3     1  UNL1        0.0252
     18 C          63.1715   91.6192    2.9362 C.3     1  UNL1        0.0692
     19 N          62.0853   91.4664    3.9593 N.3     1  UNL1       -0.2974
     20 C          60.7505   92.1140    3.7383 C.3     1  UNL1        0.0692
     21 C          60.5019   92.9144    2.4944 C.3     1  UNL1        0.0252
     22 H          62.4517   91.8385    4.8355 H       1  UNL1        0.1232
     23 CL         57.2323   96.2542   -1.1499 Cl      1  UNL1       -0.0822
     24 C          58.3212   95.4575   -0.4946 C.ar    1  UNL1        0.0577
     25 C          58.2317   93.9608   -0.4487 C.ar    1  UNL1        0.0111
     26 C          59.3206   93.1641    0.2066 C.ar    1  UNL1       -0.0031
     27 C          60.4992   93.8639    0.8160 C.ar    1  UNL1       -0.0189
     28 C          60.5887   95.3606    0.7700 C.ar    1  UNL1       -0.0031
     29 C          59.4998   96.1573    0.1148 C.ar    1  UNL1        0.0111
@<TRIPOS>BOND
     1    23    24    1
     2    24    25   ar
     3    25    26   ar
     4    26    27   ar
     5    27    16    1
     6    16     1    1
     7     1     2   ar
     8     2     3   ar
     9     3     4   ar
    10     4     7    1
    11     7     8    2
    12     8     9    1
    13     9    10    2
    14    10    11    1
    15    11    12    2
    16    12    13    1
    17    13    14    2
    18    14    15    1
    19     4     5   ar
    20     5     6   ar
    21    16    17    1
    22    17    18    1
    23    18    19    1
    24    19    20    1
    25    20    21    1
    26    27    28   ar
    27    28    29   ar
    28    29    24   ar
    29    21    16    1
    30     6     1   ar
    31    15     7    1
    32    15    11    1
    33    19    22    1
@<TRIPOS>MOLECULE
*****
 29 33 0 0 0
SMALL
GASTEIGER

@<TRIPOS>ATOM
      1 C          56.3898   94.8950   -2.0495 C.ar    1  UNL1       -0.0189
      2 C          56.5658   93.4435   -1.7144 C.ar    1  UNL1       -0.0039
      3 C          57.6711   93.0146   -0.7956 C.ar    1  UNL1        0.0009
      4 C          58.6004   94.0372   -0.2118 C.ar    1  UNL1        0.0161
      5 C          58.4244   95.4886   -0.5469 C.ar    1  UNL1        0.0009
      6 C          57.3191   95.9175   -1.4658 C.ar    1  UNL1       -0.0039
      7 C          59.7058   93.6083    0.7071 C.2     1  UNL1        0.0973
      8 N          59.3867   93.1344    2.0941 N.2     1  UNL1       -0.2014
      9 C          60.4919   92.7055    3.0129 C.2     1  UNL1        0.3387
     10 N          61.9164   92.7504    2.5448 N.2     1  UNL1       -0.0102
     11 C          62.2355   93.2243    1.1579 C.2     1  UNL1        0.3832
     12 N          63.5344   93.3766    0.4233 N.2     1  UNL1       -0.0105
     13 C          63.2318   93.8997   -0.9496 C.2     1  UNL1        0.3352
     14 N          61.7459   94.0706   -1.0635 N.2     1  UNL1       -0.2087
     15 C          61.1301   93.6532    0.2390 C.3     1  UNL1        0.2577
     16 C          55.2845   95.3238   -2.9683 C.3     1  UNL1        0.0404
     17 C          54.5996   95.4857   -1.6437 C.3     1  UNL1        0.0252
     18 C          53.1805   95.9686   -1.5872 C.3     1  UNL1        0.0692
     19 N          52.4464   96.2895   -2.8552 N.3     1  UNL1       -0.2974
     20 C          53.1313   96.1276   -4.1799 C.3     1  UNL1        0.0692
     21 C          54.5503   95.6448   -4.2365 C.3     1  UNL1        0.0252
     22 H          52.1587   97.2659   -2.7899 H       1  UNL1        0.1232
     23 CL         59.5596   94.0805   -6.9905 Cl      1  UNL1       -0.0822
     24 C          58.4909   94.3913   -5.9849 C.ar    1  UNL1        0.0577
     25 C          58.4215   95.7536   -5.3609 C.ar    1  UNL1        0.0111
     26 C          57.3528   96.0645   -4.3554 C.ar    1  UNL1       -0.0031
     27 C          56.3533   95.0130   -3.9739 C.ar    1  UNL1       -0.0189
     28 C          56.4226   93.6507   -4.5979 C.ar    1  UNL1       -0.0031
     29 C          57.4914   93.3399   -5.6034 C.ar    1  UNL1        0.0111
@<TRIPOS>BOND
     1    23    24    1
     2    24    25   ar
     3    25    26   ar
     4    26    27   ar
     5    27    16    1
     6    16     1    1
     7     1     2   ar
     8     2     3   ar
     9     3     4   ar
    10     4     7    1
    11     7     8    2
    12     8     9    1
    13     9    10    2
    14    10    11    1
    15    11    12    2
    16    12    13    1
    17    13    14    2
    18    14    15    1
    19     4     5   ar
    20     5     6   ar
    21    16    17    1
    22    17    18    1
    23    18    19    1
    24    19    20    1
    25    20    21    1
    26    27    28   ar
    27    28    29   ar
    28    29    24   ar
    29    21    16    1
    30     6     1   ar
    31    15     7    1
    32    15    11    1
    33    19    22    1
