@<TRIPOS>MOLECULE
*****
 32 35 0 0 0
SMALL
GASTEIGER

@<TRIPOS>ATOM
      1 C          63.8244   87.5614   15.2996 C.2     1  UNL1        0.2534
      2 O          63.2310   87.9522   16.6207 O.2     1  UNL1       -0.2695
      3 N          64.5149   88.5900   14.4539 N.am    1  UNL1       -0.2965
      4 H          64.9043   88.3335   13.5869 H       1  UNL1        0.1501
      5 C          62.9352   80.7539   11.4929 C.3     1  UNL1        0.0537
      6 C          63.2145   81.7412   12.5871 C.ar    1  UNL1        0.0771
      7 N          63.6048   81.2574   13.9521 N.ar    1  UNL1       -0.1522
      8 N          63.8841   82.2447   15.0463 N.ar    1  UNL1       -0.1416
      9 C          63.7730   83.7158   14.7754 C.ar    1  UNL1        0.1333
     10 S          63.9860   84.9162   15.6493 S.2     1  UNL1       -0.0604
     11 C          63.7273   86.1420   14.8242 C.ar    1  UNL1        0.0971
     12 C          63.3544   85.6991   13.4405 C.ar    1  UNL1        0.0538
     13 N          63.0131   86.5978   12.2891 N.pl3   1  UNL1       -0.3564
     14 C          63.3827   84.1996   13.4103 C.ar    1  UNL1        0.0363
     15 C          63.1034   83.2123   12.3162 C.ar    1  UNL1       -0.0033
     16 C          62.7130   83.6962   10.9510 C.3     1  UNL1        0.0324
     17 H          63.0222   87.5751   12.4079 H       1  UNL1        0.1424
     18 H          62.7800   86.2105   11.4145 H       1  UNL1        0.1424
     19 C          64.6119   90.0093   14.9293 C.3     1  UNL1        0.1166
     20 C          65.0358   91.0908   13.9802 C.ar    1  UNL1       -0.0026
     21 C          66.1390   92.0330   14.3612 C.ar    1  UNL1       -0.0026
     22 C          66.5628   93.1145   13.4121 C.ar    1  UNL1       -0.0003
     23 C          65.8834   93.2537   12.0820 C.ar    1  UNL1        0.0002
     24 C          64.7802   92.3115   11.7010 C.ar    1  UNL1       -0.0003
     25 C          64.3564   91.2301   12.6501 C.ar    1  UNL1       -0.0026
     26 C          66.3073   94.3353   11.1329 C.ar    1  UNL1        0.0054
     27 C          66.2354   95.7731   11.5540 C.ar    1  UNL1        0.0208
     28 C          66.6593   96.8546   10.6049 C.ar    1  UNL1        0.1013
     29 N          67.1550   96.4982    9.2347 N.ar    1  UNL1       -0.2165
     30 C          67.2269   95.0602    8.8137 C.ar    1  UNL1        0.2223
     31 F          67.7226   94.7038    7.4436 F       1  UNL1       -0.1832
     32 C          66.8030   93.9788    9.7628 C.ar    1  UNL1        0.0497
@<TRIPOS>BOND
     1     5     6    1
     2     6     7   ar
     3     7     8   ar
     4     8     9   ar
     5     9    10   ar
     6    10    11   ar
     7    11     1    1
     8     1     2    2
     9     1     3   am
    10     3    19    1
    11    19    20    1
    12    20    21   ar
    13    21    22   ar
    14    22    23   ar
    15    23    26    1
    16    26    27   ar
    17    27    28   ar
    18    28    29   ar
    19    29    30   ar
    20    30    31    1
    21    30    32   ar
    22    23    24   ar
    23    24    25   ar
    24    11    12   ar
    25    12    13    1
    26    12    14   ar
    27    14    15   ar
    28    15    16    1
    29    15     6   ar
    30    14     9   ar
    31    25    20   ar
    32    32    26   ar
    33     3     4    1
    34    13    17    1
    35    13    18    1
@<TRIPOS>MOLECULE
*****
 32 35 0 0 0
SMALL
GASTEIGER

@<TRIPOS>ATOM
      1 C          63.6509   87.8879   14.0531 C.2     1  UNL1        0.2534
      2 O          63.5079   88.6849   12.7905 O.2     1  UNL1       -0.2695
      3 N          63.8698   88.5883   15.3614 N.am    1  UNL1       -0.2965
      4 H          63.9637   88.0652   16.1901 H       1  UNL1        0.1501
      5 C          62.7588   80.2643   12.4072 C.3     1  UNL1        0.0537
      6 C          63.0756   81.5269   13.1526 C.ar    1  UNL1        0.0771
      7 N          63.5778   81.4585   14.5643 N.ar    1  UNL1       -0.1522
      8 N          63.8946   82.7210   15.3097 N.ar    1  UNL1       -0.1416
      9 C          63.7093   84.0520   14.6433 C.ar    1  UNL1        0.1333
     10 S          63.9367   85.4549   15.1229 S.2     1  UNL1       -0.0604
     11 C          63.5750   86.3905   14.0075 C.ar    1  UNL1        0.0971
     12 C          63.1241   85.5657   12.8386 C.ar    1  UNL1        0.0538
     13 N          62.6699   86.0935   11.5100 N.pl3   1  UNL1       -0.3564
     14 C          63.2071   84.1204   13.2316 C.ar    1  UNL1        0.0363
     15 C          62.8903   82.8579   12.4862 C.ar    1  UNL1       -0.0033
     16 C          62.3880   82.9263   11.0744 C.3     1  UNL1        0.0324
     17 H          62.6501   87.0641   11.3466 H       1  UNL1        0.1424
     18 H          62.3917   85.4692   10.8014 H       1  UNL1        0.1424
     19 C          63.9457   90.0856   15.4070 C.3     1  UNL1        0.1166
     20 C          64.6394   90.8352   14.3083 C.ar    1  UNL1       -0.0026
     21 C          63.8816   91.2307   13.0757 C.ar    1  UNL1       -0.0026
     22 C          64.5753   91.9803   11.9771 C.ar    1  UNL1       -0.0003
     23 C          66.0268   92.3344   12.1111 C.ar    1  UNL1        0.0002
     24 C          66.7845   91.9389   13.3437 C.ar    1  UNL1       -0.0003
     25 C          66.0909   91.1893   14.4423 C.ar    1  UNL1       -0.0026
     26 C          66.7204   93.0840   11.0125 C.ar    1  UNL1        0.0054
     27 C          66.5088   94.5614   10.8629 C.ar    1  UNL1        0.0208
     28 C          67.2025   95.3110    9.7643 C.ar    1  UNL1        0.1013
     29 N          68.1078   94.5831    8.8152 N.ar    1  UNL1       -0.2165
     30 C          68.3193   93.1056    8.9648 C.ar    1  UNL1        0.2223
     31 F          69.2245   92.3777    8.0157 F       1  UNL1       -0.1832
     32 C          67.6257   92.3561   10.0634 C.ar    1  UNL1        0.0497
@<TRIPOS>BOND
     1     5     6    1
     2     6     7   ar
     3     7     8   ar
     4     8     9   ar
     5     9    10   ar
     6    10    11   ar
     7    11     1    1
     8     1     2    2
     9     1     3   am
    10     3    19    1
    11    19    20    1
    12    20    21   ar
    13    21    22   ar
    14    22    23   ar
    15    23    26    1
    16    26    27   ar
    17    27    28   ar
    18    28    29   ar
    19    29    30   ar
    20    30    31    1
    21    30    32   ar
    22    23    24   ar
    23    24    25   ar
    24    11    12   ar
    25    12    13    1
    26    12    14   ar
    27    14    15   ar
    28    15    16    1
    29    15     6   ar
    30    14     9   ar
    31    25    20   ar
    32    32    26   ar
    33     3     4    1
    34    13    17    1
    35    13    18    1
@<TRIPOS>MOLECULE
*****
 32 35 0 0 0
SMALL
GASTEIGER

@<TRIPOS>ATOM
      1 C          63.6603   89.2690   15.3197 C.2     1  UNL1        0.2534
      2 O          62.3648   89.4506   16.0536 O.2     1  UNL1       -0.2695
      3 N          64.3210   87.9227   15.2863 N.am    1  UNL1       -0.2965
      4 H          65.1713   87.8035   14.8046 H       1  UNL1        0.1501
      5 C          66.3316   94.7918   10.4221 C.3     1  UNL1        0.0537
      6 C          66.0769   94.0131   11.6787 C.ar    1  UNL1        0.0771
      7 N          66.6672   94.4730   12.9786 N.ar    1  UNL1       -0.1522
      8 N          66.4125   93.6944   14.2351 N.ar    1  UNL1       -0.1416
      9 C          65.5675   92.4558   14.1917 C.ar    1  UNL1        0.1333
     10 S          65.1461   91.4903   15.2594 S.2     1  UNL1       -0.0604
     11 C          64.2953   90.4336   14.6193 C.ar    1  UNL1        0.0971
     12 C          64.1909   90.7461   13.1560 C.ar    1  UNL1        0.0538
     13 N          63.4333   89.9489   12.1360 N.pl3   1  UNL1       -0.3564
     14 C          64.9772   91.9959   12.8917 C.ar    1  UNL1        0.0363
     15 C          65.2319   92.7746   11.6352 C.ar    1  UNL1       -0.0033
     16 C          64.6415   92.3147   10.3351 C.3     1  UNL1        0.0324
     17 H          62.9451   89.1384   12.4082 H       1  UNL1        0.1424
     18 H          63.4242   90.2361   11.1944 H       1  UNL1        0.1424
     19 C          63.6860   86.7581   15.9866 C.3     1  UNL1        0.1166
     20 C          63.4951   85.4595   15.2605 C.ar    1  UNL1       -0.0026
     21 C          62.4205   84.5078   15.6957 C.ar    1  UNL1       -0.0026
     22 C          62.2296   83.2093   14.9696 C.ar    1  UNL1       -0.0003
     23 C          63.1133   82.8624   13.8082 C.ar    1  UNL1        0.0002
     24 C          64.1879   83.8141   13.3730 C.ar    1  UNL1       -0.0003
     25 C          64.3788   85.1127   14.0991 C.ar    1  UNL1       -0.0026
     26 C          62.9224   81.5638   13.0821 C.ar    1  UNL1        0.0054
     27 C          62.5527   80.3258   13.8440 C.ar    1  UNL1        0.0208
     28 C          62.3617   79.0272   13.1179 C.ar    1  UNL1        0.1013
     29 N          62.5405   78.9666   11.6298 N.ar    1  UNL1       -0.2165
     30 C          62.9103   80.2047   10.8679 C.ar    1  UNL1        0.2223
     31 F          63.0891   80.1442    9.3798 F       1  UNL1       -0.1832
     32 C          63.1012   81.5033   11.5940 C.ar    1  UNL1        0.0497
@<TRIPOS>BOND
     1     5     6    1
     2     6     7   ar
     3     7     8   ar
     4     8     9   ar
     5     9    10   ar
     6    10    11   ar
     7    11     1    1
     8     1     2    2
     9     1     3   am
    10     3    19    1
    11    19    20    1
    12    20    21   ar
    13    21    22   ar
    14    22    23   ar
    15    23    26    1
    16    26    27   ar
    17    27    28   ar
    18    28    29   ar
    19    29    30   ar
    20    30    31    1
    21    30    32   ar
    22    23    24   ar
    23    24    25   ar
    24    11    12   ar
    25    12    13    1
    26    12    14   ar
    27    14    15   ar
    28    15    16    1
    29    15     6   ar
    30    14     9   ar
    31    25    20   ar
    32    32    26   ar
    33     3     4    1
    34    13    17    1
    35    13    18    1
@<TRIPOS>MOLECULE
*****
 32 35 0 0 0
SMALL
GASTEIGER

@<TRIPOS>ATOM
      1 C          59.8345   88.3950    8.0475 C.2     1  UNL1        0.2534
      2 O          58.8946   87.3703    7.4848 O.2     1  UNL1       -0.2695
      3 N          59.9377   89.7485    7.4095 N.am    1  UNL1       -0.2965
      4 H          60.5546   90.4211    7.7788 H       1  UNL1        0.1501
      5 C          64.4985   88.1530   14.3572 C.3     1  UNL1        0.0537
      6 C          63.5907   87.7140   13.2467 C.ar    1  UNL1        0.0771
      7 N          63.2239   86.2664   13.1057 N.ar    1  UNL1       -0.1522
      8 N          62.3160   85.8275   11.9953 N.ar    1  UNL1       -0.1416
      9 C          61.7749   86.8361   11.0258 C.ar    1  UNL1        0.1333
     10 S          60.8660   86.7016    9.8402 S.2     1  UNL1       -0.0604
     11 C          60.6710   88.0661    9.2484 C.ar    1  UNL1        0.0971
     12 C          61.4595   89.0439   10.0683 C.ar    1  UNL1        0.0538
     13 N          61.5498   90.5223    9.8313 N.pl3   1  UNL1       -0.3564
     14 C          62.1417   88.2837   11.1668 C.ar    1  UNL1        0.0363
     15 C          63.0496   88.7226   12.2773 C.ar    1  UNL1       -0.0033
     16 C          63.4164   90.1703   12.4182 C.3     1  UNL1        0.0324
     17 H          61.0628   90.9310    9.0797 H       1  UNL1        0.1424
     18 H          62.0961   91.0839   10.4275 H       1  UNL1        0.1424
     19 C          59.1012   90.0773    6.2086 C.3     1  UNL1        0.1166
     20 C          59.6628   90.9386    5.1164 C.ar    1  UNL1       -0.0026
     21 C          61.1236   90.8696    4.7831 C.ar    1  UNL1       -0.0026
     22 C          61.6851   91.7308    3.6909 C.ar    1  UNL1       -0.0003
     23 C          60.7858   92.6610    2.9319 C.ar    1  UNL1        0.0002
     24 C          59.3249   92.7299    3.2652 C.ar    1  UNL1       -0.0003
     25 C          58.7634   91.8687    4.3574 C.ar    1  UNL1       -0.0026
     26 C          61.3473   93.5222    1.8396 C.ar    1  UNL1        0.0054
     27 C          60.6048   94.7467    1.3934 C.ar    1  UNL1        0.0208
     28 C          61.1664   95.6080    0.3011 C.ar    1  UNL1        0.1013
     29 N          62.4705   95.2446   -0.3449 N.ar    1  UNL1       -0.2165
     30 C          63.2130   94.0200    0.1014 C.ar    1  UNL1        0.2223
     31 F          64.5171   93.6566   -0.5446 F       1  UNL1       -0.1832
     32 C          62.6514   93.1588    1.1937 C.ar    1  UNL1        0.0497
@<TRIPOS>BOND
     1     5     6    1
     2     6     7   ar
     3     7     8   ar
     4     8     9   ar
     5     9    10   ar
     6    10    11   ar
     7    11     1    1
     8     1     2    2
     9     1     3   am
    10     3    19    1
    11    19    20    1
    12    20    21   ar
    13    21    22   ar
    14    22    23   ar
    15    23    26    1
    16    26    27   ar
    17    27    28   ar
    18    28    29   ar
    19    29    30   ar
    20    30    31    1
    21    30    32   ar
    22    23    24   ar
    23    24    25   ar
    24    11    12   ar
    25    12    13    1
    26    12    14   ar
    27    14    15   ar
    28    15    16    1
    29    15     6   ar
    30    14     9   ar
    31    25    20   ar
    32    32    26   ar
    33     3     4    1
    34    13    17    1
    35    13    18    1
@<TRIPOS>MOLECULE
*****
 32 35 0 0 0
SMALL
GASTEIGER

@<TRIPOS>ATOM
      1 C          59.7866   88.8574    7.8706 C.2     1  UNL1        0.2534
      2 O          58.6441   87.9836    7.4448 O.2     1  UNL1       -0.2695
      3 N          60.0914   90.1156    7.1131 N.am    1  UNL1       -0.2965
      4 H          60.8412   90.6891    7.3926 H       1  UNL1        0.1501
      5 C          63.9298   85.4343   13.5925 C.3     1  UNL1        0.0537
      6 C          63.2842   86.4913   12.7463 C.ar    1  UNL1        0.0771
      7 N          63.4440   87.9392   13.1037 N.ar    1  UNL1       -0.1522
      8 N          62.7984   88.9962   12.2575 N.ar    1  UNL1       -0.1416
      9 C          61.9931   88.6052   11.0539 C.ar    1  UNL1        0.1333
     10 S          61.2459   89.4183   10.0388 S.2     1  UNL1       -0.0604
     11 C          60.6243   88.4729    9.0541 C.ar    1  UNL1        0.0971
     12 C          60.9874   87.0754    9.4606 C.ar    1  UNL1        0.0538
     13 N          60.5766   85.8171    8.7550 N.pl3   1  UNL1       -0.3564
     14 C          61.8334   87.1572   10.6966 C.ar    1  UNL1        0.0363
     15 C          62.4789   86.1003   11.5428 C.ar    1  UNL1       -0.0033
     16 C          62.3192   84.6522   11.1853 C.3     1  UNL1        0.0324
     17 H          60.0170   85.8663    7.9465 H       1  UNL1        0.1424
     18 H          60.8665   84.9419    9.1004 H       1  UNL1        0.1424
     19 C          59.2537   90.5001    5.9297 C.3     1  UNL1        0.1166
     20 C          59.8743   91.2345    4.7783 C.ar    1  UNL1       -0.0026
     21 C          59.0341   92.1361    3.9234 C.ar    1  UNL1       -0.0026
     22 C          59.6547   92.8704    2.7721 C.ar    1  UNL1       -0.0003
     23 C          61.1156   92.7030    2.4757 C.ar    1  UNL1        0.0002
     24 C          61.9558   91.8013    3.3306 C.ar    1  UNL1       -0.0003
     25 C          61.3352   91.0671    4.4819 C.ar    1  UNL1       -0.0026
     26 C          61.7362   93.4373    1.3243 C.ar    1  UNL1        0.0054
     27 C          62.6168   94.6246    1.5790 C.ar    1  UNL1        0.0208
     28 C          63.2375   95.3589    0.4276 C.ar    1  UNL1        0.1013
     29 N          62.9774   94.9059   -0.9785 N.ar    1  UNL1       -0.2165
     30 C          62.0968   93.7186   -1.2332 C.ar    1  UNL1        0.2223
     31 F          61.8367   93.2656   -2.6394 F       1  UNL1       -0.1832
     32 C          61.4762   92.9844   -0.0819 C.ar    1  UNL1        0.0497
@<TRIPOS>BOND
     1     5     6    1
     2     6     7   ar
     3     7     8   ar
     4     8     9   ar
     5     9    10   ar
     6    10    11   ar
     7    11     1    1
     8     1     2    2
     9     1     3   am
    10     3    19    1
    11    19    20    1
    12    20    21   ar
    13    21    22   ar
    14    22    23   ar
    15    23    26    1
    16    26    27   ar
    17    27    28   ar
    18    28    29   ar
    19    29    30   ar
    20    30    31    1
    21    30    32   ar
    22    23    24   ar
    23    24    25   ar
    24    11    12   ar
    25    12    13    1
    26    12    14   ar
    27    14    15   ar
    28    15    16    1
    29    15     6   ar
    30    14     9   ar
    31    25    20   ar
    32    32    26   ar
    33     3     4    1
    34    13    17    1
    35    13    18    1
@<TRIPOS>MOLECULE
*****
 32 35 0 0 0
SMALL
GASTEIGER

@<TRIPOS>ATOM
      1 C          59.1246   91.5443    4.7681 C.2     1  UNL1        0.2534
      2 O          57.7256   91.9560    5.1190 O.2     1  UNL1       -0.2695
      3 N          59.8036   90.4561    5.5458 N.am    1  UNL1       -0.2965
      4 H          60.7218   90.1859    5.3154 H       1  UNL1        0.1501
      5 C          64.1072   94.3756   -0.5968 C.3     1  UNL1        0.0537
      6 C          62.8418   94.1118    0.1643 C.ar    1  UNL1        0.0771
      7 N          61.5582   94.7560   -0.2685 N.ar    1  UNL1       -0.1522
      8 N          60.2928   94.4922    0.4926 N.ar    1  UNL1       -0.1416
      9 C          60.3110   93.5842    1.6863 C.ar    1  UNL1        0.1333
     10 S          59.2295   93.1398    2.6260 S.2     1  UNL1       -0.0604
     11 C          59.8447   92.2209    3.6395 C.ar    1  UNL1        0.0971
     12 C          61.3064   92.0974    3.3262 C.ar    1  UNL1        0.0538
     13 N          62.3047   91.2756    4.0865 N.pl3   1  UNL1       -0.3564
     14 C          61.5946   92.9400    2.1191 C.ar    1  UNL1        0.0363
     15 C          62.8600   93.2037    1.3580 C.ar    1  UNL1       -0.0033
     16 C          64.1436   92.5595    1.7908 C.3     1  UNL1        0.0324
     17 H          62.0176   90.7533    4.8701 H       1  UNL1        0.1424
     18 H          63.2470   91.2585    3.8019 H       1  UNL1        0.1424
     19 C          59.0834   89.7796    6.6743 C.3     1  UNL1        0.1166
     20 C          59.8059   88.7888    7.5383 C.ar    1  UNL1       -0.0026
     21 C          59.7368   87.3248    7.2193 C.ar    1  UNL1       -0.0026
     22 C          60.4593   86.3340    8.0832 C.ar    1  UNL1       -0.0003
     23 C          61.2509   86.8073    9.2661 C.ar    1  UNL1        0.0002
     24 C          61.3201   88.2713    9.5851 C.ar    1  UNL1       -0.0003
     25 C          60.5976   89.2620    8.7212 C.ar    1  UNL1       -0.0026
     26 C          61.9734   85.8164   10.1300 C.ar    1  UNL1        0.0054
     27 C          61.7781   85.8352   11.6171 C.ar    1  UNL1        0.0208
     28 C          62.5006   84.8444   12.4810 C.ar    1  UNL1        0.1013
     29 N          63.4184   83.8348   11.8578 N.ar    1  UNL1       -0.2165
     30 C          63.6137   83.8160   10.3706 C.ar    1  UNL1        0.2223
     31 F          64.5314   82.8065    9.7474 F       1  UNL1       -0.1832
     32 C          62.8912   84.8069    9.5068 C.ar    1  UNL1        0.0497
@<TRIPOS>BOND
     1     5     6    1
     2     6     7   ar
     3     7     8   ar
     4     8     9   ar
     5     9    10   ar
     6    10    11   ar
     7    11     1    1
     8     1     2    2
     9     1     3   am
    10     3    19    1
    11    19    20    1
    12    20    21   ar
    13    21    22   ar
    14    22    23   ar
    15    23    26    1
    16    26    27   ar
    17    27    28   ar
    18    28    29   ar
    19    29    30   ar
    20    30    31    1
    21    30    32   ar
    22    23    24   ar
    23    24    25   ar
    24    11    12   ar
    25    12    13    1
    26    12    14   ar
    27    14    15   ar
    28    15    16    1
    29    15     6   ar
    30    14     9   ar
    31    25    20   ar
    32    32    26   ar
    33     3     4    1
    34    13    17    1
    35    13    18    1
@<TRIPOS>MOLECULE
*****
 32 35 0 0 0
SMALL
GASTEIGER

@<TRIPOS>ATOM
      1 C          63.0407   87.3874   13.0337 C.2     1  UNL1        0.2534
      2 O          62.2462   88.3846   12.2435 O.2     1  UNL1       -0.2695
      3 N          63.8282   87.8343   14.2296 N.am    1  UNL1       -0.2965
      4 H          64.3497   87.1798   14.7482 H       1  UNL1        0.1501
      5 C          62.6409   79.5791   12.3304 C.3     1  UNL1        0.0537
      6 C          62.8529   81.0248   11.9912 C.ar    1  UNL1        0.0771
      7 N          63.2890   81.4151   10.6101 N.ar    1  UNL1       -0.1522
      8 N          63.5009   82.8608   10.2710 N.ar    1  UNL1       -0.1416
      9 C          63.2767   83.9162   11.3129 C.ar    1  UNL1        0.1333
     10 S          63.4048   85.4102   11.2721 S.2     1  UNL1       -0.0604
     11 C          63.0478   85.9433   12.6279 C.ar    1  UNL1        0.0971
     12 C          62.6991   84.7788   13.5068 C.ar    1  UNL1        0.0538
     13 N          62.2822   84.8539   14.9457 N.pl3   1  UNL1       -0.3564
     14 C          62.8406   83.5260   12.6940 C.ar    1  UNL1        0.0363
     15 C          62.6287   82.0803   13.0332 C.ar    1  UNL1       -0.0033
     16 C          62.1925   81.6901   14.4144 C.3     1  UNL1        0.0324
     17 H          62.2181   85.7277   15.3947 H       1  UNL1        0.1424
     18 H          62.0725   84.0294   15.4411 H       1  UNL1        0.1424
     19 C          63.8211   89.2783   14.6353 C.3     1  UNL1        0.1166
     20 C          64.4487   90.3104   13.7458 C.ar    1  UNL1       -0.0026
     21 C          63.7840   90.6940   12.4570 C.ar    1  UNL1       -0.0026
     22 C          64.4115   91.7260   11.5676 C.ar    1  UNL1       -0.0003
     23 C          65.7038   92.3744   11.9670 C.ar    1  UNL1        0.0002
     24 C          66.3686   91.9908   13.2558 C.ar    1  UNL1       -0.0003
     25 C          65.7410   90.9588   14.1452 C.ar    1  UNL1       -0.0026
     26 C          66.3314   93.4064   11.0775 C.ar    1  UNL1        0.0054
     27 C          66.2190   94.8619   11.4222 C.ar    1  UNL1        0.0208
     28 C          66.8466   95.8940   10.5327 C.ar    1  UNL1        0.1013
     29 N          67.5866   95.4704    9.2986 N.ar    1  UNL1       -0.2165
     30 C          67.6989   94.0149    8.9539 C.ar    1  UNL1        0.2223
     31 F          68.4388   93.5913    7.7197 F       1  UNL1       -0.1832
     32 C          67.0713   92.9829    9.8434 C.ar    1  UNL1        0.0497
@<TRIPOS>BOND
     1     5     6    1
     2     6     7   ar
     3     7     8   ar
     4     8     9   ar
     5     9    10   ar
     6    10    11   ar
     7    11     1    1
     8     1     2    2
     9     1     3   am
    10     3    19    1
    11    19    20    1
    12    20    21   ar
    13    21    22   ar
    14    22    23   ar
    15    23    26    1
    16    26    27   ar
    17    27    28   ar
    18    28    29   ar
    19    29    30   ar
    20    30    31    1
    21    30    32   ar
    22    23    24   ar
    23    24    25   ar
    24    11    12   ar
    25    12    13    1
    26    12    14   ar
    27    14    15   ar
    28    15    16    1
    29    15     6   ar
    30    14     9   ar
    31    25    20   ar
    32    32    26   ar
    33     3     4    1
    34    13    17    1
    35    13    18    1
@<TRIPOS>MOLECULE
*****
 32 35 0 0 0
SMALL
GASTEIGER

@<TRIPOS>ATOM
      1 C          59.5992   88.6418    7.7808 C.2     1  UNL1        0.2534
      2 O          58.3423   87.9231    7.3887 O.2     1  UNL1       -0.2695
      3 N          60.0379   89.8563    7.0176 N.am    1  UNL1       -0.2965
      4 H          60.8628   90.3280    7.2749 H       1  UNL1        0.1501
      5 C          64.2110   87.5032   14.0305 C.3     1  UNL1        0.0537
      6 C          63.2980   87.2284   12.8725 C.ar    1  UNL1        0.0771
      7 N          62.8891   85.8200   12.5577 N.ar    1  UNL1       -0.1522
      8 N          61.9761   85.5452   11.3997 N.ar    1  UNL1       -0.1416
      9 C          61.4720   86.6787   10.5566 C.ar    1  UNL1        0.1333
     10 S          60.5675   86.7151    9.3605 S.2     1  UNL1       -0.0604
     11 C          60.4174   88.1460    8.9362 C.ar    1  UNL1        0.0971
     12 C          61.2291   88.9940    9.8700 C.ar    1  UNL1        0.0538
     13 N          61.3652   90.4867    9.8125 N.pl3   1  UNL1       -0.3564
     14 C          61.8809   88.0871   10.8715 C.ar    1  UNL1        0.0363
     15 C          62.7939   88.3619   12.0295 C.ar    1  UNL1       -0.0033
     16 C          63.2028   89.7704   12.3443 C.3     1  UNL1        0.0324
     17 H          60.8957   90.9972    9.1137 H       1  UNL1        0.1424
     18 H          61.9239   90.9559   10.4734 H       1  UNL1        0.1424
     19 C          59.2197   90.3520    5.8623 C.3     1  UNL1        0.1166
     20 C          59.8742   91.1282    4.7581 C.ar    1  UNL1       -0.0026
     21 C          59.0430   91.9814    3.8464 C.ar    1  UNL1       -0.0026
     22 C          59.6975   92.7576    2.7422 C.ar    1  UNL1       -0.0003
     23 C          61.1831   92.6806    2.5498 C.ar    1  UNL1        0.0002
     24 C          62.0142   91.8273    3.4614 C.ar    1  UNL1       -0.0003
     25 C          61.3598   91.0512    4.5656 C.ar    1  UNL1       -0.0026
     26 C          61.8376   93.4568    1.4455 C.ar    1  UNL1        0.0054
     27 C          62.8463   94.5182    1.7707 C.ar    1  UNL1        0.0208
     28 C          63.5008   95.2944    0.6665 C.ar    1  UNL1        0.1013
     29 N          63.1465   95.0092   -0.7629 N.ar    1  UNL1       -0.2165
     30 C          62.1377   93.9477   -1.0880 C.ar    1  UNL1        0.2223
     31 F          61.7833   93.6624   -2.5174 F       1  UNL1       -0.1832
     32 C          61.4833   93.1715    0.0162 C.ar    1  UNL1        0.0497
@<TRIPOS>BOND
     1     5     6    1
     2     6     7   ar
     3     7     8   ar
     4     8     9   ar
     5     9    10   ar
     6    10    11   ar
     7    11     1    1
     8     1     2    2
     9     1     3   am
    10     3    19    1
    11    19    20    1
    12    20    21   ar
    13    21    22   ar
    14    22    23   ar
    15    23    26    1
    16    26    27   ar
    17    27    28   ar
    18    28    29   ar
    19    29    30   ar
    20    30    31    1
    21    30    32   ar
    22    23    24   ar
    23    24    25   ar
    24    11    12   ar
    25    12    13    1
    26    12    14   ar
    27    14    15   ar
    28    15    16    1
    29    15     6   ar
    30    14     9   ar
    31    25    20   ar
    32    32    26   ar
    33     3     4    1
    34    13    17    1
    35    13    18    1
@<TRIPOS>MOLECULE
*****
 32 35 0 0 0
SMALL
GASTEIGER

@<TRIPOS>ATOM
      1 C          62.2046   87.2114   11.2132 C.2     1  UNL1        0.2534
      2 O          62.4704   87.7383    9.8341 O.2     1  UNL1       -0.2695
      3 N          61.6689   88.1255   12.2749 N.am    1  UNL1       -0.2965
      4 H          61.4944   87.7797   13.1800 H       1  UNL1        0.1501
      5 C          64.0048   80.1924   14.2326 C.3     1  UNL1        0.0537
      6 C          63.5643   81.2487   13.2629 C.ar    1  UNL1        0.0771
      7 N          63.1510   80.8653   11.8729 N.ar    1  UNL1       -0.1522
      8 N          62.7105   81.9215   10.9032 N.ar    1  UNL1       -0.1416
      9 C          62.6834   83.3612   11.3235 C.ar    1  UNL1        0.1333
     10 S          62.2989   84.6132   10.5923 S.2     1  UNL1       -0.0604
     11 C          62.4746   85.7704   11.5304 C.ar    1  UNL1        0.0971
     12 C          62.9677   85.2336   12.8414 C.ar    1  UNL1        0.0538
     13 N          63.2774   86.0435   14.0653 N.pl3   1  UNL1       -0.3564
     14 C          63.0967   83.7446   12.7135 C.ar    1  UNL1        0.0363
     15 C          63.5372   82.6883   13.6832 C.ar    1  UNL1       -0.0033
     16 C          63.9505   83.0718   15.0732 C.3     1  UNL1        0.0324
     17 H          63.1605   87.0209   14.0514 H       1  UNL1        0.1424
     18 H          63.5976   85.5976   14.8826 H       1  UNL1        0.1424
     19 C          61.3989   89.5665   11.9577 C.3     1  UNL1        0.1166
     20 C          62.5306   90.4765   11.5818 C.ar    1  UNL1       -0.0026
     21 C          63.5707   90.8398   12.5997 C.ar    1  UNL1       -0.0026
     22 C          64.7023   91.7498   12.2238 C.ar    1  UNL1       -0.0003
     23 C          64.7939   92.2964   10.8299 C.ar    1  UNL1        0.0002
     24 C          63.7538   91.9330    9.8120 C.ar    1  UNL1       -0.0003
     25 C          62.6222   91.0230   10.1879 C.ar    1  UNL1       -0.0026
     26 C          65.9256   93.2064   10.4540 C.ar    1  UNL1        0.0054
     27 C          65.7516   94.6938   10.5382 C.ar    1  UNL1        0.0208
     28 C          66.8833   95.6038   10.1623 C.ar    1  UNL1        0.1013
     29 N          68.1890   95.0263    9.7022 N.ar    1  UNL1       -0.2165
     30 C          68.3629   93.5387    9.6179 C.ar    1  UNL1        0.2223
     31 F          69.6685   92.9612    9.1578 F       1  UNL1       -0.1832
     32 C          67.2312   92.6288    9.9938 C.ar    1  UNL1        0.0497
@<TRIPOS>BOND
     1     5     6    1
     2     6     7   ar
     3     7     8   ar
     4     8     9   ar
     5     9    10   ar
     6    10    11   ar
     7    11     1    1
     8     1     2    2
     9     1     3   am
    10     3    19    1
    11    19    20    1
    12    20    21   ar
    13    21    22   ar
    14    22    23   ar
    15    23    26    1
    16    26    27   ar
    17    27    28   ar
    18    28    29   ar
    19    29    30   ar
    20    30    31    1
    21    30    32   ar
    22    23    24   ar
    23    24    25   ar
    24    11    12   ar
    25    12    13    1
    26    12    14   ar
    27    14    15   ar
    28    15    16    1
    29    15     6   ar
    30    14     9   ar
    31    25    20   ar
    32    32    26   ar
    33     3     4    1
    34    13    17    1
    35    13    18    1
