@<TRIPOS>MOLECULE
*****
 29 32 0 0 0
SMALL
GASTEIGER

@<TRIPOS>ATOM
      1 C          62.1565   86.4185   10.7015 C.ar    1  UNL1        0.0525
      2 C          62.6845   85.6462    9.5288 C.ar    1  UNL1        0.0159
      3 C          61.9268   85.6372    8.2344 C.ar    1  UNL1        0.0579
      4 CL         62.4547   84.8650    7.0617 Cl      1  UNL1       -0.0822
      5 C          60.6411   86.4003    8.1124 C.ar    1  UNL1        0.0145
      6 C          60.1132   87.1724    9.2851 C.ar    1  UNL1        0.0378
      7 C          60.8709   87.1815   10.5795 C.ar    1  UNL1        0.1405
      8 N          63.4200   85.2212   12.7301 N.ar    1  UNL1       -0.2877
      9 C          64.1177   85.6927   13.9715 C.ar    1  UNL1        0.1828
     10 N          64.0431   87.1904   14.0046 N.ar    1  UNL1       -0.2221
     11 C          63.2993   87.6446   12.7837 C.ar    1  UNL1        0.1182
     12 C          62.9143   86.4275   11.9960 C.ar    1  UNL1        0.0874
     13 C          62.3716   81.3936   12.7513 C.ar    1  UNL1        0.0154
     14 C          62.9304   80.9393   11.4356 C.ar    1  UNL1        0.0012
     15 C          63.6525   81.9123   10.5513 C.ar    1  UNL1        0.0015
     16 C          63.8157   83.3395   10.9828 C.ar    1  UNL1        0.0176
     17 C          63.2568   83.7938   12.2985 C.ar    1  UNL1        0.0655
     18 C          62.5348   82.8208   13.1828 C.ar    1  UNL1        0.0187
     19 O          60.3704   80.8239   14.3072 O.co2   1  UNL1       -0.5446
     20 C          61.6496   80.4206   13.6356 C.2     1  UNL1        0.0729
     21 O          62.2067   79.0443   13.8484 O.co2   1  UNL1       -0.5446
     22 O          60.3430   87.9537   11.7522 O.3     1  UNL1       -0.4706
     23 C          60.3489   89.4534   11.7267 C.3     1  UNL1        0.2320
     24 C          61.6385   90.1952   11.5351 C.ar    1  UNL1        0.0212
     25 C          62.0783   90.5914   10.1568 C.ar    1  UNL1       -0.0007
     26 C          63.3679   91.3332    9.9653 C.ar    1  UNL1       -0.0002
     27 C          64.2176   91.6789   11.1520 C.ar    1  UNL1       -0.0000
     28 C          63.7778   91.2827   12.5303 C.ar    1  UNL1       -0.0002
     29 C          62.4882   90.5409   12.7218 C.ar    1  UNL1       -0.0007
@<TRIPOS>UNITY_ATOM_ATTR
19 1
charge -1
@<TRIPOS>BOND
     1    19    20   ar
     2    20    21   ar
     3    20    13    1
     4    13    14   ar
     5    14    15   ar
     6    15    16   ar
     7    16    17   ar
     8    17     8    1
     9     8     9   ar
    10     9    10   ar
    11    10    11   ar
    12    11    12   ar
    13    12     1    1
    14     1     2   ar
    15     2     3   ar
    16     3     4    1
    17     3     5   ar
    18     5     6   ar
    19     6     7   ar
    20     7    22    1
    21    22    23    1
    22    23    24    1
    23    24    25   ar
    24    25    26   ar
    25    26    27   ar
    26    27    28   ar
    27    28    29   ar
    28    17    18   ar
    29    18    13   ar
    30    12     8   ar
    31     7     1   ar
    32    29    24   ar
@<TRIPOS>MOLECULE
*****
 29 32 0 0 0
SMALL
GASTEIGER

@<TRIPOS>ATOM
      1 C          64.4181   90.8042   13.2152 C.ar    1  UNL1        0.0525
      2 C          63.8926   91.3815   11.9342 C.ar    1  UNL1        0.0159
      3 C          63.0588   90.5365   11.0174 C.ar    1  UNL1        0.0579
      4 CL         62.5333   91.1137    9.7365 Cl      1  UNL1       -0.0822
      5 C          62.7503   89.1144   11.3813 C.ar    1  UNL1        0.0145
      6 C          63.2757   88.5372   12.6623 C.ar    1  UNL1        0.0378
      7 C          64.1096   89.3822   13.5791 C.ar    1  UNL1        0.1405
      8 N          66.3173   92.6182   13.7126 N.ar    1  UNL1       -0.2877
      9 C          66.8907   93.2414   14.9507 C.ar    1  UNL1        0.1828
     10 N          66.1797   92.6575   16.1354 N.ar    1  UNL1       -0.2221
     11 C          65.1669   91.6734   15.6295 C.ar    1  UNL1        0.1182
     12 C          65.2520   91.6492   14.1321 C.ar    1  UNL1        0.0874
     13 C          66.7162   94.4793   10.2302 C.ar    1  UNL1        0.0154
     14 C          67.5729   93.5011    9.4825 C.ar    1  UNL1        0.0012
     15 C          68.0111   92.2285   10.1448 C.ar    1  UNL1        0.0015
     16 C          67.5926   91.9342   11.5548 C.ar    1  UNL1        0.0176
     17 C          66.7359   92.9125   12.3025 C.ar    1  UNL1        0.0655
     18 C          66.2977   94.1850   11.6402 C.ar    1  UNL1        0.0187
     19 O          67.1613   96.4102    8.5499 O.co2   1  UNL1       -0.5446
     20 C          66.2780   95.7518    9.5678 C.2     1  UNL1        0.0729
     21 O          64.9566   96.3659    9.9235 O.co2   1  UNL1       -0.5446
     22 O          64.6351   88.8049   14.8601 O.3     1  UNL1       -0.4706
     23 C          63.7816   87.8737   15.6688 C.3     1  UNL1        0.2320
     24 C          63.8679   86.3928   15.4459 C.ar    1  UNL1        0.0212
     25 C          64.9769   85.8233   14.6116 C.ar    1  UNL1       -0.0007
     26 C          65.0632   84.3425   14.3887 C.ar    1  UNL1       -0.0002
     27 C          64.0405   83.4312   15.0000 C.ar    1  UNL1       -0.0000
     28 C          62.9316   84.0007   15.8342 C.ar    1  UNL1       -0.0002
     29 C          62.8453   85.4815   16.0572 C.ar    1  UNL1       -0.0007
@<TRIPOS>UNITY_ATOM_ATTR
19 1
charge -1
@<TRIPOS>BOND
     1    19    20   ar
     2    20    21   ar
     3    20    13    1
     4    13    14   ar
     5    14    15   ar
     6    15    16   ar
     7    16    17   ar
     8    17     8    1
     9     8     9   ar
    10     9    10   ar
    11    10    11   ar
    12    11    12   ar
    13    12     1    1
    14     1     2   ar
    15     2     3   ar
    16     3     4    1
    17     3     5   ar
    18     5     6   ar
    19     6     7   ar
    20     7    22    1
    21    22    23    1
    22    23    24    1
    23    24    25   ar
    24    25    26   ar
    25    26    27   ar
    26    27    28   ar
    27    28    29   ar
    28    17    18   ar
    29    18    13   ar
    30    12     8   ar
    31     7     1   ar
    32    29    24   ar
@<TRIPOS>MOLECULE
*****
 29 32 0 0 0
SMALL
GASTEIGER

@<TRIPOS>ATOM
      1 C          63.2298   89.2082   12.0465 C.ar    1  UNL1        0.0525
      2 C          64.1329   90.3899   11.8515 C.ar    1  UNL1        0.0159
      3 C          63.7939   91.4320   10.8272 C.ar    1  UNL1        0.0579
      4 CL         64.6970   92.6137   10.6322 Cl      1  UNL1       -0.0822
      5 C          62.5518   91.2924    9.9979 C.ar    1  UNL1        0.0145
      6 C          61.6487   90.1107   10.1929 C.ar    1  UNL1        0.0378
      7 C          61.9877   89.0687   11.2172 C.ar    1  UNL1        0.1405
      8 N          64.1554   88.4214   14.4275 N.ar    1  UNL1       -0.2877
      9 C          64.3299   87.0988   15.1134 C.ar    1  UNL1        0.1828
     10 N          63.8510   86.0262   14.1806 N.ar    1  UNL1       -0.2221
     11 C          63.3806   86.6859   12.9182 C.ar    1  UNL1        0.1182
     12 C          63.5688   88.1661   13.0708 C.ar    1  UNL1        0.0874
     13 C          66.0742   91.8335   15.0803 C.ar    1  UNL1        0.0154
     14 C          65.2076   92.4478   16.1394 C.ar    1  UNL1        0.0012
     15 C          63.9903   91.7201   16.6278 C.ar    1  UNL1        0.0015
     16 C          63.6396   90.3779   16.0572 C.ar    1  UNL1        0.0176
     17 C          64.5061   89.7636   14.9981 C.ar    1  UNL1        0.0655
     18 C          65.7234   90.4914   14.5097 C.ar    1  UNL1        0.0187
     19 O          67.8111   92.3089   13.2076 O.co2   1  UNL1       -0.5446
     20 C          67.2914   92.5613   14.5918 C.2     1  UNL1        0.0729
     21 O          67.9890   93.5415   15.4877 O.co2   1  UNL1       -0.5446
     22 O          61.0846   87.8870   11.4121 O.3     1  UNL1       -0.4706
     23 C          60.3017   87.3423   10.2545 C.3     1  UNL1        0.2320
     24 C          60.9883   86.5172    9.2065 C.ar    1  UNL1        0.0212
     25 C          62.4028   86.0642    9.4163 C.ar    1  UNL1       -0.0007
     26 C          63.0892   85.2392    8.3683 C.ar    1  UNL1       -0.0002
     27 C          62.3612   84.8673    7.1107 C.ar    1  UNL1       -0.0000
     28 C          60.9467   85.3203    6.9010 C.ar    1  UNL1       -0.0002
     29 C          60.2603   86.1453    7.9489 C.ar    1  UNL1       -0.0007
@<TRIPOS>UNITY_ATOM_ATTR
19 1
charge -1
@<TRIPOS>BOND
     1    19    20   ar
     2    20    21   ar
     3    20    13    1
     4    13    14   ar
     5    14    15   ar
     6    15    16   ar
     7    16    17   ar
     8    17     8    1
     9     8     9   ar
    10     9    10   ar
    11    10    11   ar
    12    11    12   ar
    13    12     1    1
    14     1     2   ar
    15     2     3   ar
    16     3     4    1
    17     3     5   ar
    18     5     6   ar
    19     6     7   ar
    20     7    22    1
    21    22    23    1
    22    23    24    1
    23    24    25   ar
    24    25    26   ar
    25    26    27   ar
    26    27    28   ar
    27    28    29   ar
    28    17    18   ar
    29    18    13   ar
    30    12     8   ar
    31     7     1   ar
    32    29    24   ar
@<TRIPOS>MOLECULE
*****
 29 32 0 0 0
SMALL
GASTEIGER

@<TRIPOS>ATOM
      1 C          63.0154   87.1475   12.3470 C.ar    1  UNL1        0.0525
      2 C          63.3933   85.9359   13.1467 C.ar    1  UNL1        0.0159
      3 C          64.1637   86.0911   14.4243 C.ar    1  UNL1        0.0579
      4 CL         64.5415   84.8796   15.2241 Cl      1  UNL1       -0.0822
      5 C          64.5563   87.4577   14.9023 C.ar    1  UNL1        0.0145
      6 C          64.1785   88.6691   14.1025 C.ar    1  UNL1        0.0378
      7 C          63.4081   88.5140   12.8249 C.ar    1  UNL1        0.1405
      8 N          62.1086   85.7307   10.2696 N.ar    1  UNL1       -0.2877
      9 C          61.2550   86.0303    9.0731 C.ar    1  UNL1        0.1828
     10 N          60.8639   87.4771    9.1333 N.ar    1  UNL1       -0.2221
     11 C          61.4758   88.0717   10.3671 C.ar    1  UNL1        0.1182
     12 C          62.2450   86.9923   11.0693 C.ar    1  UNL1        0.0874
     13 C          62.8182   82.2909   12.1175 C.ar    1  UNL1        0.0154
     14 C          63.9387   81.7463   11.2823 C.ar    1  UNL1        0.0012
     15 C          64.4493   82.5298   10.1095 C.ar    1  UNL1        0.0015
     16 C          63.8392   83.8579    9.7719 C.ar    1  UNL1        0.0176
     17 C          62.7187   84.4025   10.6072 C.ar    1  UNL1        0.0655
     18 C          62.2082   83.6190   11.7800 C.ar    1  UNL1        0.0187
     19 O          61.8842   82.2194   14.5409 O.co2   1  UNL1       -0.5446
     20 C          62.3076   81.5074   13.2904 C.2     1  UNL1        0.0729
     21 O          62.2205   80.0120   13.2127 O.co2   1  UNL1       -0.5446
     22 O          63.0302   89.7255   12.0252 O.3     1  UNL1       -0.4706
     23 C          63.3436   91.0963   12.5470 C.3     1  UNL1        0.2320
     24 C          64.6243   91.7728   12.1569 C.ar    1  UNL1        0.0212
     25 C          64.8082   92.2810   10.7576 C.ar    1  UNL1       -0.0007
     26 C          66.0889   92.9575   10.3676 C.ar    1  UNL1       -0.0002
     27 C          67.1858   93.1256   11.3768 C.ar    1  UNL1       -0.0000
     28 C          67.0020   92.6174   12.7760 C.ar    1  UNL1       -0.0002
     29 C          65.7212   91.9410   13.1661 C.ar    1  UNL1       -0.0007
@<TRIPOS>UNITY_ATOM_ATTR
19 1
charge -1
@<TRIPOS>BOND
     1    19    20   ar
     2    20    21   ar
     3    20    13    1
     4    13    14   ar
     5    14    15   ar
     6    15    16   ar
     7    16    17   ar
     8    17     8    1
     9     8     9   ar
    10     9    10   ar
    11    10    11   ar
    12    11    12   ar
    13    12     1    1
    14     1     2   ar
    15     2     3   ar
    16     3     4    1
    17     3     5   ar
    18     5     6   ar
    19     6     7   ar
    20     7    22    1
    21    22    23    1
    22    23    24    1
    23    24    25   ar
    24    25    26   ar
    25    26    27   ar
    26    27    28   ar
    27    28    29   ar
    28    17    18   ar
    29    18    13   ar
    30    12     8   ar
    31     7     1   ar
    32    29    24   ar
@<TRIPOS>MOLECULE
*****
 29 32 0 0 0
SMALL
GASTEIGER

@<TRIPOS>ATOM
      1 C          63.7882   89.4905   13.3675 C.ar    1  UNL1        0.0525
      2 C          63.8185   88.0173   13.0865 C.ar    1  UNL1        0.0159
      3 C          63.8054   87.0369   14.2216 C.ar    1  UNL1        0.0579
      4 CL         63.8357   85.5638   13.9407 Cl      1  UNL1       -0.0822
      5 C          63.7620   87.5296   15.6378 C.ar    1  UNL1        0.0145
      6 C          63.7316   89.0027   15.9188 C.ar    1  UNL1        0.0378
      7 C          63.7447   89.9831   14.7836 C.ar    1  UNL1        0.1405
      8 N          62.9673   90.3905   10.9882 N.ar    1  UNL1       -0.2877
      9 C          63.3013   91.5738   10.1290 C.ar    1  UNL1        0.1828
     10 N          64.3417   92.3856   10.8421 N.ar    1  UNL1       -0.2221
     11 C          64.6507   91.7039   12.1421 C.ar    1  UNL1        0.1182
     12 C          63.8013   90.4709   12.2324 C.ar    1  UNL1        0.0874
     13 C          61.3450   87.1505    9.3692 C.ar    1  UNL1        0.0154
     14 C          59.9868   87.1654   10.0056 C.ar    1  UNL1        0.0012
     15 C          59.6221   88.2553   10.9695 C.ar    1  UNL1        0.0015
     16 C          60.6156   89.3303   11.2970 C.ar    1  UNL1        0.0176
     17 C          61.9738   89.3154   10.6606 C.ar    1  UNL1        0.0655
     18 C          62.3385   88.2255    9.6967 C.ar    1  UNL1        0.0187
     19 O          63.0751   85.4416    8.4548 O.co2   1  UNL1       -0.5446
     20 C          61.7097   86.0607    8.4053 C.2     1  UNL1        0.0729
     21 O          60.7091   85.5898    7.3919 O.co2   1  UNL1       -0.5446
     22 O          63.7144   91.4563   15.0646 O.3     1  UNL1       -0.4706
     23 C          64.7165   92.0617   16.0022 C.3     1  UNL1        0.2320
     24 C          66.1440   92.2246   15.5712 C.ar    1  UNL1        0.0212
     25 C          66.6260   91.5709   14.3101 C.ar    1  UNL1       -0.0007
     26 C          68.0535   91.7338   13.8791 C.ar    1  UNL1       -0.0002
     27 C          68.9990   92.5504   14.7093 C.ar    1  UNL1       -0.0000
     28 C          68.5170   93.2041   15.9704 C.ar    1  UNL1       -0.0002
     29 C          67.0895   93.0412   16.4014 C.ar    1  UNL1       -0.0007
@<TRIPOS>UNITY_ATOM_ATTR
19 1
charge -1
@<TRIPOS>BOND
     1    19    20   ar
     2    20    21   ar
     3    20    13    1
     4    13    14   ar
     5    14    15   ar
     6    15    16   ar
     7    16    17   ar
     8    17     8    1
     9     8     9   ar
    10     9    10   ar
    11    10    11   ar
    12    11    12   ar
    13    12     1    1
    14     1     2   ar
    15     2     3   ar
    16     3     4    1
    17     3     5   ar
    18     5     6   ar
    19     6     7   ar
    20     7    22    1
    21    22    23    1
    22    23    24    1
    23    24    25   ar
    24    25    26   ar
    25    26    27   ar
    26    27    28   ar
    27    28    29   ar
    28    17    18   ar
    29    18    13   ar
    30    12     8   ar
    31     7     1   ar
    32    29    24   ar
@<TRIPOS>MOLECULE
*****
 29 32 0 0 0
SMALL
GASTEIGER

@<TRIPOS>ATOM
      1 C          62.4071   86.6034   11.1989 C.ar    1  UNL1        0.0525
      2 C          62.9694   85.7268   10.1193 C.ar    1  UNL1        0.0159
      3 C          62.2705   85.6249    8.7960 C.ar    1  UNL1        0.0579
      4 CL         62.8326   84.7483    7.7164 Cl      1  UNL1       -0.0822
      5 C          61.0093   86.3997    8.5522 C.ar    1  UNL1        0.0145
      6 C          60.4472   87.2763    9.6318 C.ar    1  UNL1        0.0378
      7 C          61.1461   87.3781   10.9551 C.ar    1  UNL1        0.1405
      8 N          63.3859   85.5695   13.4612 N.ar    1  UNL1       -0.2877
      9 C          64.1007   86.1231   14.6581 C.ar    1  UNL1        0.1828
     10 N          64.2625   87.6010   14.4589 N.ar    1  UNL1       -0.2221
     11 C          63.6478   87.9608   13.1388 C.ar    1  UNL1        0.1182
     12 C          63.1060   86.7053   12.5222 C.ar    1  UNL1        0.0874
     13 C          63.0675   81.9963   11.7639 C.ar    1  UNL1        0.0154
     14 C          62.2763   81.2584   12.8029 C.ar    1  UNL1        0.0012
     15 C          61.8550   81.9576   14.0613 C.ar    1  UNL1        0.0015
     16 C          62.2249   83.3946   14.2808 C.ar    1  UNL1        0.0176
     17 C          63.0160   84.1324   13.2418 C.ar    1  UNL1        0.0655
     18 C          63.4374   83.4333   11.9833 C.ar    1  UNL1        0.0187
     19 O          62.8243   80.0145   10.1016 O.co2   1  UNL1       -0.5446
     20 C          63.4889   81.2971   10.5055 C.2     1  UNL1        0.0729
     21 O          64.5748   81.8806    9.6509 O.co2   1  UNL1       -0.5446
     22 O          60.5838   88.2548   12.0347 O.3     1  UNL1       -0.4706
     23 C          60.6094   89.7463   11.8789 C.3     1  UNL1        0.2320
     24 C          61.9074   90.4509   11.6162 C.ar    1  UNL1        0.0212
     25 C          62.8094   90.8122   12.7589 C.ar    1  UNL1       -0.0007
     26 C          64.1074   91.5167   12.4962 C.ar    1  UNL1       -0.0002
     27 C          64.5033   91.8599   11.0907 C.ar    1  UNL1       -0.0000
     28 C          63.6013   91.4985    9.9479 C.ar    1  UNL1       -0.0002
     29 C          62.3034   90.7940   10.2107 C.ar    1  UNL1       -0.0007
@<TRIPOS>UNITY_ATOM_ATTR
19 1
charge -1
@<TRIPOS>BOND
     1    19    20   ar
     2    20    21   ar
     3    20    13    1
     4    13    14   ar
     5    14    15   ar
     6    15    16   ar
     7    16    17   ar
     8    17     8    1
     9     8     9   ar
    10     9    10   ar
    11    10    11   ar
    12    11    12   ar
    13    12     1    1
    14     1     2   ar
    15     2     3   ar
    16     3     4    1
    17     3     5   ar
    18     5     6   ar
    19     6     7   ar
    20     7    22    1
    21    22    23    1
    22    23    24    1
    23    24    25   ar
    24    25    26   ar
    25    26    27   ar
    26    27    28   ar
    27    28    29   ar
    28    17    18   ar
    29    18    13   ar
    30    12     8   ar
    31     7     1   ar
    32    29    24   ar
@<TRIPOS>MOLECULE
*****
 29 32 0 0 0
SMALL
GASTEIGER

@<TRIPOS>ATOM
      1 C          62.7909   87.2361   11.8300 C.ar    1  UNL1        0.0525
      2 C          62.2827   86.1499   10.9288 C.ar    1  UNL1        0.0159
      3 C          61.5417   86.5026    9.6732 C.ar    1  UNL1        0.0579
      4 CL         61.0335   85.4165    8.7720 Cl      1  UNL1       -0.0822
      5 C          61.3087   87.9415    9.3188 C.ar    1  UNL1        0.0145
      6 C          61.8169   89.0275   10.2200 C.ar    1  UNL1        0.0378
      7 C          62.5579   88.6748   11.4756 C.ar    1  UNL1        0.1405
      8 N          63.9045   85.5001   13.5304 N.ar    1  UNL1       -0.2877
      9 C          64.6333   85.6138   14.8365 C.ar    1  UNL1        0.1828
     10 N          64.7112   87.0673   15.1989 N.ar    1  UNL1       -0.2221
     11 C          64.0304   87.8519   14.1167 C.ar    1  UNL1        0.1182
     12 C          63.5319   86.8833   13.0856 C.ar    1  UNL1        0.0874
     13 C          62.5354   81.8579   12.7493 C.ar    1  UNL1        0.0154
     14 C          62.9953   81.6800   11.3327 C.ar    1  UNL1        0.0012
     15 C          63.7583   82.7754   10.6487 C.ar    1  UNL1        0.0015
     16 C          64.0614   84.0488   11.3812 C.ar    1  UNL1        0.0176
     17 C          63.6014   84.2267   12.7978 C.ar    1  UNL1        0.0655
     18 C          62.8384   83.1313   13.4818 C.ar    1  UNL1        0.0187
     19 O          62.1564   79.3296   13.2116 O.co2   1  UNL1       -0.5446
     20 C          61.7724   80.7625   13.4333 C.2     1  UNL1        0.0729
     21 O          60.6254   81.1000   14.3390 O.co2   1  UNL1       -0.5446
     22 O          63.0661   89.7610   12.3768 O.3     1  UNL1       -0.4706
     23 C          63.6477   91.0124   11.7890 C.3     1  UNL1        0.2320
     24 C          64.6901   91.7819   12.5448 C.ar    1  UNL1        0.0212
     25 C          65.3936   92.9338   11.8904 C.ar    1  UNL1       -0.0007
     26 C          66.4360   93.7033   12.6463 C.ar    1  UNL1       -0.0002
     27 C          66.7748   93.3210   14.0566 C.ar    1  UNL1       -0.0000
     28 C          66.0713   92.1691   14.7110 C.ar    1  UNL1       -0.0002
     29 C          65.0289   91.3996   13.9552 C.ar    1  UNL1       -0.0007
@<TRIPOS>UNITY_ATOM_ATTR
19 1
charge -1
@<TRIPOS>BOND
     1    19    20   ar
     2    20    21   ar
     3    20    13    1
     4    13    14   ar
     5    14    15   ar
     6    15    16   ar
     7    16    17   ar
     8    17     8    1
     9     8     9   ar
    10     9    10   ar
    11    10    11   ar
    12    11    12   ar
    13    12     1    1
    14     1     2   ar
    15     2     3   ar
    16     3     4    1
    17     3     5   ar
    18     5     6   ar
    19     6     7   ar
    20     7    22    1
    21    22    23    1
    22    23    24    1
    23    24    25   ar
    24    25    26   ar
    25    26    27   ar
    26    27    28   ar
    27    28    29   ar
    28    17    18   ar
    29    18    13   ar
    30    12     8   ar
    31     7     1   ar
    32    29    24   ar
@<TRIPOS>MOLECULE
*****
 29 32 0 0 0
SMALL
GASTEIGER

@<TRIPOS>ATOM
      1 C          62.7786   86.6269   11.5875 C.ar    1  UNL1        0.0525
      2 C          63.1177   85.5204   10.6330 C.ar    1  UNL1        0.0159
      3 C          62.5552   85.5309    9.2425 C.ar    1  UNL1        0.0579
      4 CL         62.8942   84.4245    8.2881 Cl      1  UNL1       -0.0822
      5 C          61.6537   86.6477    8.8064 C.ar    1  UNL1        0.0145
      6 C          61.3147   87.7541    9.7608 C.ar    1  UNL1        0.0378
      7 C          61.8772   87.7436   11.1513 C.ar    1  UNL1        0.1405
      8 N          63.4822   85.4137   13.8630 N.ar    1  UNL1       -0.2877
      9 C          64.0895   85.8609   15.1596 C.ar    1  UNL1        0.1828
     10 N          64.3238   87.3401   15.0759 N.ar    1  UNL1       -0.2221
     11 C          63.8612   87.8071   13.7276 C.ar    1  UNL1        0.1182
     12 C          63.3411   86.6165   12.9779 C.ar    1  UNL1        0.0874
     13 C          63.1326   82.0039   11.8626 C.ar    1  UNL1        0.0154
     14 C          62.2926   81.2028   12.8126 C.ar    1  UNL1        0.0012
     15 C          61.8492   81.8052   14.1128 C.ar    1  UNL1        0.0015
     16 C          62.2457   83.2088   14.4629 C.ar    1  UNL1        0.0176
     17 C          63.0857   84.0100   13.5129 C.ar    1  UNL1        0.0655
     18 C          63.5291   83.4075   12.2127 C.ar    1  UNL1        0.0187
     19 O          62.9083   80.1626   10.0435 O.co2   1  UNL1       -0.5446
     20 C          63.5760   81.4014   10.5625 C.2     1  UNL1        0.0729
     21 O          64.6872   82.0378    9.7813 O.co2   1  UNL1       -0.5446
     22 O          61.5382   88.8501   12.1058 O.3     1  UNL1       -0.4706
     23 C          61.6545   90.2800   11.6681 C.3     1  UNL1        0.2320
     24 C          62.9807   90.9782   11.7313 C.ar    1  UNL1        0.0212
     25 C          63.5818   91.5605   10.4864 C.ar    1  UNL1       -0.0007
     26 C          64.9079   92.2587   10.5496 C.ar    1  UNL1       -0.0002
     27 C          65.6329   92.3745   11.8576 C.ar    1  UNL1       -0.0000
     28 C          65.0318   91.7922   13.1024 C.ar    1  UNL1       -0.0002
     29 C          63.7057   91.0941   13.0393 C.ar    1  UNL1       -0.0007
@<TRIPOS>UNITY_ATOM_ATTR
19 1
charge -1
@<TRIPOS>BOND
     1    19    20   ar
     2    20    21   ar
     3    20    13    1
     4    13    14   ar
     5    14    15   ar
     6    15    16   ar
     7    16    17   ar
     8    17     8    1
     9     8     9   ar
    10     9    10   ar
    11    10    11   ar
    12    11    12   ar
    13    12     1    1
    14     1     2   ar
    15     2     3   ar
    16     3     4    1
    17     3     5   ar
    18     5     6   ar
    19     6     7   ar
    20     7    22    1
    21    22    23    1
    22    23    24    1
    23    24    25   ar
    24    25    26   ar
    25    26    27   ar
    26    27    28   ar
    27    28    29   ar
    28    17    18   ar
    29    18    13   ar
    30    12     8   ar
    31     7     1   ar
    32    29    24   ar
@<TRIPOS>MOLECULE
*****
 29 32 0 0 0
SMALL
GASTEIGER

@<TRIPOS>ATOM
      1 C          60.7254   88.1977   10.6495 C.ar    1  UNL1        0.0525
      2 C          59.4876   87.8873   11.4380 C.ar    1  UNL1        0.0159
      3 C          58.8070   88.9696   12.2224 C.ar    1  UNL1        0.0579
      4 CL         57.5693   88.6592   13.0109 Cl      1  UNL1       -0.0822
      5 C          59.3641   90.3624   12.2184 C.ar    1  UNL1        0.0145
      6 C          60.6018   90.6728   11.4299 C.ar    1  UNL1        0.0378
      7 C          61.2824   89.5904   10.6455 C.ar    1  UNL1        0.1405
      8 N          62.3858   86.1171   10.4066 N.ar    1  UNL1       -0.2877
      9 C          62.8116   85.2261    9.2775 C.ar    1  UNL1        0.1828
     10 N          62.0949   85.6737    8.0382 N.ar    1  UNL1       -0.2221
     11 C          61.2262   86.8414    8.4013 C.ar    1  UNL1        0.1182
     12 C          61.4060   87.1154    9.8650 C.ar    1  UNL1        0.0874
     13 C          63.2476   84.6292   13.9834 C.ar    1  UNL1        0.0154
     14 C          63.7997   85.8432   14.6699 C.ar    1  UNL1        0.0012
     15 C          63.8806   87.1485   13.9353 C.ar    1  UNL1        0.0015
     16 C          63.4093   87.2398   12.5142 C.ar    1  UNL1        0.0176
     17 C          62.8571   86.0258   11.8277 C.ar    1  UNL1        0.0655
     18 C          62.7763   84.7205   12.5623 C.ar    1  UNL1        0.0187
     19 O          61.9568   82.4506   14.5646 O.co2   1  UNL1       -0.5446
     20 C          63.1667   83.3239   14.7180 C.2     1  UNL1        0.0729
     21 O          64.2958   82.8918   15.6059 O.co2   1  UNL1       -0.5446
     22 O          62.5201   89.9009    9.8570 O.3     1  UNL1       -0.4706
     23 C          63.1594   91.2534    9.9661 C.3     1  UNL1        0.2320
     24 C          64.1309   91.5367   11.0734 C.ar    1  UNL1        0.0212
     25 C          63.9248   90.9243   12.4271 C.ar    1  UNL1       -0.0007
     26 C          64.8963   91.2077   13.5343 C.ar    1  UNL1       -0.0002
     27 C          66.0740   92.1034   13.2877 C.ar    1  UNL1       -0.0000
     28 C          66.2801   92.7157   11.9340 C.ar    1  UNL1       -0.0002
     29 C          65.3086   92.4324   10.8268 C.ar    1  UNL1       -0.0007
@<TRIPOS>UNITY_ATOM_ATTR
19 1
charge -1
@<TRIPOS>BOND
     1    19    20   ar
     2    20    21   ar
     3    20    13    1
     4    13    14   ar
     5    14    15   ar
     6    15    16   ar
     7    16    17   ar
     8    17     8    1
     9     8     9   ar
    10     9    10   ar
    11    10    11   ar
    12    11    12   ar
    13    12     1    1
    14     1     2   ar
    15     2     3   ar
    16     3     4    1
    17     3     5   ar
    18     5     6   ar
    19     6     7   ar
    20     7    22    1
    21    22    23    1
    22    23    24    1
    23    24    25   ar
    24    25    26   ar
    25    26    27   ar
    26    27    28   ar
    27    28    29   ar
    28    17    18   ar
    29    18    13   ar
    30    12     8   ar
    31     7     1   ar
    32    29    24   ar
