@<TRIPOS>MOLECULE
*****
 47 50 0 0 0
SMALL
GASTEIGER

@<TRIPOS>ATOM
      1 N          64.2509   90.6436   13.3110 N.am    1  UNL1       -0.2735
      2 C          64.2650   90.3702   14.7857 C.2     1  UNL1        0.2492
      3 O          64.6310   91.4617   15.7474 O.2     1  UNL1       -0.2699
      4 C          63.9131   89.0053   15.2990 C.ar    1  UNL1        0.0567
      5 C          63.2182   88.8569   16.6199 C.ar    1  UNL1        0.0063
      6 C          62.8663   87.4921   17.1331 C.ar    1  UNL1        0.0225
      7 C          63.2093   86.2757   16.3253 C.ar    1  UNL1        0.1202
      8 N          62.9897   84.8124   16.5717 N.ar    1  UNL1       -0.1948
      9 C          63.5488   84.0565   15.4030 C.ar    1  UNL1        0.2891
     10 O          64.1140   85.0525   14.4343 O.2     1  UNL1       -0.4239
     11 C          63.9042   86.4240   15.0043 C.ar    1  UNL1        0.1662
     12 C          64.2561   87.7889   14.4911 C.ar    1  UNL1        0.0437
     13 N          63.5437   82.5661   15.2329 N.pl3   1  UNL1       -0.2883
     14 H          64.3219   82.0353   15.5192 H       1  UNL1        0.1511
     15 C          62.3530   81.8846   14.6265 C.3     1  UNL1        0.0925
     16 C          62.5464   80.8228   13.5848 C.3     1  UNL1        0.0386
     17 C          62.7937   81.2094   12.1567 C.3     1  UNL1        0.0739
     18 N          63.3378   82.5687   11.8311 N.3     1  UNL1       -0.2703
     19 C          64.8015   82.7440   11.5538 C.3     1  UNL1        0.0897
     20 C          62.4182   83.7529   11.7828 C.3     1  UNL1        0.0897
     21 C          63.8848   89.5521   12.3493 C.3     1  UNL1        0.1245
     22 C          62.4531   89.3557   11.9473 C.3     1  UNL1        0.1484
     23 O          61.3512   89.9017   12.8062 O.3     1  UNL1       -0.3810
     24 H          61.7338   90.3498   13.5767 H       1  UNL1        0.2105
     25 C          62.1233   88.6134   10.6863 C.3     1  UNL1        0.1075
     26 N          61.4916   89.3364    9.5337 N.am    1  UNL1       -0.2695
     27 C          60.0125   89.5855    9.5245 C.2     1  UNL1        0.4020
     28 O          59.1650   89.1116   10.6679 O.2     1  UNL1       -0.2264
     29 H          62.0479   89.6474    8.7833 H       1  UNL1        0.1528
     30 O          59.3808   90.3085    8.3720 O.3     1  UNL1       -0.4291
     31 C          59.5139   89.7633    6.9809 C.3     1  UNL1        0.2447
     32 C          59.3133   90.6655    5.7994 C.ar    1  UNL1        0.0714
     33 C          57.9985   91.1914    5.3047 C.ar    1  UNL1        0.1053
     34 N          58.2649   92.0511    4.1048 N.ar    1  UNL1       -0.2350
     35 C          59.7445   92.0565    3.8579 C.ar    1  UNL1        0.1343
     36 S          60.3924   91.2002    4.9052 S.2     1  UNL1       -0.0652
     37 C          62.4250   87.1481   10.5778 C.3     1  UNL1        0.0485
     38 C          62.0763   86.4014    9.3245 C.ar    1  UNL1       -0.0204
     39 C          63.1351   85.6340    8.5895 C.ar    1  UNL1       -0.0042
     40 C          62.7863   84.8872    7.3362 C.ar    1  UNL1       -0.0003
     41 C          61.3789   84.9078    6.8179 C.ar    1  UNL1       -0.0000
     42 C          60.3202   85.6752    7.5529 C.ar    1  UNL1       -0.0003
     43 C          60.6688   86.4220    8.8062 C.ar    1  UNL1       -0.0042
     44 C          64.6028   92.0085   12.7977 C.3     1  UNL1        0.0937
     45 C          67.1424   92.1559   13.3253 C.3     1  UNL1        0.0018
     46 C          66.0058   92.3057   12.3581 C.3     1  UNL1        0.0199
     47 C          66.2721   92.7527   10.9512 C.3     1  UNL1        0.0018
@<TRIPOS>BOND
     1    45    46    1
     2    46    47    1
     3    46    44    1
     4    44     1    1
     5     1    21    1
     6    21    22    1
     7    22    23    1
     8    22    25    1
     9    25    37    1
    10    37    38    1
    11    38    39   ar
    12    39    40   ar
    13    40    41   ar
    14    41    42   ar
    15    42    43   ar
    16    25    26    1
    17    26    27   am
    18    27    28    2
    19    27    30    1
    20    30    31    1
    21    31    32    1
    22    32    33   ar
    23    33    34   ar
    24    34    35   ar
    25    35    36   ar
    26     1     2   am
    27     2     3    2
    28     2     4    1
    29     4     5   ar
    30     5     6   ar
    31     6     7   ar
    32     7     8   ar
    33     8     9   ar
    34     9    13    1
    35    13    15    1
    36    15    16    1
    37    16    17    1
    38    17    18    1
    39    18    19    1
    40    18    20    1
    41     9    10   ar
    42    10    11   ar
    43    11    12   ar
    44    43    38   ar
    45    36    32   ar
    46    12     4   ar
    47    11     7   ar
    48    23    24    1
    49    26    29    1
    50    13    14    1
@<TRIPOS>MOLECULE
*****
 47 50 0 0 0
SMALL
GASTEIGER

@<TRIPOS>ATOM
      1 N          63.3006   83.8809   13.1206 N.am    1  UNL1       -0.2735
      2 C          64.0804   84.1935   14.3632 C.2     1  UNL1        0.2492
      3 O          65.1420   83.2473   14.8404 O.2     1  UNL1       -0.2699
      4 C          63.7988   85.4525   15.1285 C.ar    1  UNL1        0.0567
      5 C          63.0824   85.3857   16.4447 C.ar    1  UNL1        0.0063
      6 C          62.8008   86.6446   17.2100 C.ar    1  UNL1        0.0225
      7 C          63.2355   87.9704   16.6592 C.ar    1  UNL1        0.1202
      8 N          63.0982   89.3690   17.1837 N.ar    1  UNL1       -0.1948
      9 C          63.7296   90.3001   16.1917 C.ar    1  UNL1        0.2891
     10 O          64.2572   89.4770   15.0541 O.2     1  UNL1       -0.4239
     11 C          63.9518   88.0372   15.3430 C.ar    1  UNL1        0.1662
     12 C          64.2335   86.7783   14.5777 C.ar    1  UNL1        0.0437
     13 N          63.8180   91.7925   16.3155 N.pl3   1  UNL1       -0.2883
     14 H          63.0482   92.3535   16.0667 H       1  UNL1        0.1511
     15 C          65.0792   92.4299   16.8185 C.3     1  UNL1        0.0925
     16 C          66.1586   92.8208   15.8530 C.3     1  UNL1        0.0386
     17 C          67.5104   92.1762   15.9380 C.3     1  UNL1        0.0739
     18 N          68.7148   92.8846   15.3926 N.3     1  UNL1       -0.2703
     19 C          69.1398   94.1994   15.9763 C.3     1  UNL1        0.0897
     20 C          69.4942   92.2782   14.2634 C.3     1  UNL1        0.0897
     21 C          62.2390   84.8271   12.6433 C.3     1  UNL1        0.1245
     22 C          62.4431   85.6069   11.3782 C.3     1  UNL1        0.1484
     23 O          63.1351   84.9715   10.2089 O.3     1  UNL1       -0.3810
     24 H          63.3842   84.0619   10.4359 H       1  UNL1        0.2105
     25 C          61.9551   87.0220   11.2825 C.3     1  UNL1        0.1075
     26 N          62.9140   88.1603   11.4691 N.am    1  UNL1       -0.2695
     27 C          62.4637   89.4154   12.1560 C.2     1  UNL1        0.4020
     28 O          61.0544   89.5322   12.6564 O.2     1  UNL1       -0.2264
     29 H          63.8390   88.0836   11.1407 H       1  UNL1        0.1528
     30 O          63.4226   90.5537   12.3427 O.3     1  UNL1       -0.4291
     31 C          63.9349   91.3059   11.1503 C.3     1  UNL1        0.2447
     32 C          65.0199   92.3281   11.3179 C.ar    1  UNL1        0.0714
     33 C          65.9884   92.4065   12.4607 C.ar    1  UNL1        0.1053
     34 N          66.8940   93.5781   12.2212 N.ar    1  UNL1       -0.2350
     35 C          66.4852   94.2237   10.9304 C.ar    1  UNL1        0.1343
     36 S          65.3270   93.4511   10.3721 S.2     1  UNL1       -0.0652
     37 C          60.5082   87.2989   11.0002 C.3     1  UNL1        0.0485
     38 C          60.0772   87.7041    9.6218 C.ar    1  UNL1       -0.0204
     39 C          60.1498   89.1435    9.2061 C.ar    1  UNL1       -0.0042
     40 C          59.7188   89.5487    7.8276 C.ar    1  UNL1       -0.0003
     41 C          59.2152   88.5146    6.8649 C.ar    1  UNL1       -0.0000
     42 C          59.1426   87.0751    7.2806 C.ar    1  UNL1       -0.0003
     43 C          59.5735   86.6699    8.6590 C.ar    1  UNL1       -0.0042
     44 C          63.5822   82.6219   12.3552 C.3     1  UNL1        0.0937
     45 C          61.9127   81.2982   13.8418 C.3     1  UNL1        0.0018
     46 C          62.7662   81.3897   12.6118 C.3     1  UNL1        0.0199
     47 C          62.8039   80.2491   11.6384 C.3     1  UNL1        0.0018
@<TRIPOS>BOND
     1    45    46    1
     2    46    47    1
     3    46    44    1
     4    44     1    1
     5     1    21    1
     6    21    22    1
     7    22    23    1
     8    22    25    1
     9    25    37    1
    10    37    38    1
    11    38    39   ar
    12    39    40   ar
    13    40    41   ar
    14    41    42   ar
    15    42    43   ar
    16    25    26    1
    17    26    27   am
    18    27    28    2
    19    27    30    1
    20    30    31    1
    21    31    32    1
    22    32    33   ar
    23    33    34   ar
    24    34    35   ar
    25    35    36   ar
    26     1     2   am
    27     2     3    2
    28     2     4    1
    29     4     5   ar
    30     5     6   ar
    31     6     7   ar
    32     7     8   ar
    33     8     9   ar
    34     9    13    1
    35    13    15    1
    36    15    16    1
    37    16    17    1
    38    17    18    1
    39    18    19    1
    40    18    20    1
    41     9    10   ar
    42    10    11   ar
    43    11    12   ar
    44    43    38   ar
    45    36    32   ar
    46    12     4   ar
    47    11     7   ar
    48    23    24    1
    49    26    29    1
    50    13    14    1
@<TRIPOS>MOLECULE
*****
 47 50 0 0 0
SMALL
GASTEIGER

@<TRIPOS>ATOM
      1 N          64.5965   91.5961   12.2126 N.am    1  UNL1       -0.2735
      2 C          64.8119   91.7001   13.6934 C.2     1  UNL1        0.2492
      3 O          65.5152   92.8944   14.2669 O.2     1  UNL1       -0.2699
      4 C          64.3241   90.6097   14.6007 C.ar    1  UNL1        0.0567
      5 C          63.7125   90.9545   15.9262 C.ar    1  UNL1        0.0063
      6 C          63.2247   89.8641   16.8334 C.ar    1  UNL1        0.0225
      7 C          63.3485   88.4289   16.4151 C.ar    1  UNL1        0.1202
      8 N          62.9596   87.1487   17.0933 N.ar    1  UNL1       -0.1948
      9 C          63.3308   86.0127   16.1868 C.ar    1  UNL1        0.2891
     10 O          63.9491   86.5909   14.9485 O.2     1  UNL1       -0.4239
     11 C          63.9601   88.0842   15.0896 C.ar    1  UNL1        0.1662
     12 C          64.4479   89.1745   14.1824 C.ar    1  UNL1        0.0437
     13 N          63.1206   84.5545   16.4691 N.pl3   1  UNL1       -0.2883
     14 H          63.2525   84.2055   17.3801 H       1  UNL1        0.1511
     15 C          62.7095   83.6282   15.3632 C.3     1  UNL1        0.0925
     16 C          63.7389   83.0896   14.4144 C.3     1  UNL1        0.0386
     17 C          63.7025   81.6460   14.0086 C.3     1  UNL1        0.0739
     18 N          62.5631   81.1278   13.1821 N.3     1  UNL1       -0.2703
     19 C          62.7532   80.8784   11.7152 C.3     1  UNL1        0.0897
     20 C          61.2335   80.8590   13.8224 C.3     1  UNL1        0.0897
     21 C          63.8932   90.4018   11.6390 C.3     1  UNL1        0.1245
     22 C          62.9344   90.5723   10.4981 C.3     1  UNL1        0.1484
     23 O          62.9908   91.8078    9.6494 O.3     1  UNL1       -0.3810
     24 H          63.6978   92.3890    9.9709 H       1  UNL1        0.2105
     25 C          61.9193   89.5074   10.2059 C.3     1  UNL1        0.1075
     26 N          61.0145   89.6397    9.0168 N.am    1  UNL1       -0.2695
     27 C          59.7597   88.8220    8.9346 C.2     1  UNL1        0.4020
     28 O          59.4096   87.8720   10.0415 O.2     1  UNL1       -0.2264
     29 H          61.2443   90.2632    8.2904 H       1  UNL1        0.1528
     30 O          58.8549   88.9543    7.7456 O.3     1  UNL1       -0.4291
     31 C          59.4382   89.1362    6.3757 C.3     1  UNL1        0.2447
     32 C          59.1418   90.3813    5.5935 C.ar    1  UNL1        0.0714
     33 C          57.7840   90.9764    5.3646 C.ar    1  UNL1        0.1053
     34 N          57.9540   92.2128    4.5326 N.ar    1  UNL1       -0.2350
     35 C          59.4170   92.3820    4.2473 C.ar    1  UNL1        0.1343
     36 S          60.1510   91.2501    4.9030 S.2     1  UNL1       -0.0652
     37 C          61.8090   88.3101   11.1028 C.3     1  UNL1        0.0485
     38 C          62.2964   86.9723   10.6310 C.ar    1  UNL1       -0.0204
     39 C          62.6077   86.7565    9.1797 C.ar    1  UNL1       -0.0042
     40 C          63.0951   85.4186    8.7080 C.ar    1  UNL1       -0.0003
     41 C          63.2712   84.2965    9.6876 C.ar    1  UNL1       -0.0000
     42 C          62.9599   84.5122   11.1390 C.ar    1  UNL1       -0.0003
     43 C          62.4725   85.8501   11.6107 C.ar    1  UNL1       -0.0042
     44 C          65.0844   92.6865   11.3053 C.3     1  UNL1        0.0937
     45 C          67.5226   91.8366   11.5924 C.3     1  UNL1        0.0018
     46 C          66.5427   92.7856   10.9685 C.3     1  UNL1        0.0199
     47 C          67.0211   93.8337   10.0079 C.3     1  UNL1        0.0018
@<TRIPOS>BOND
     1    45    46    1
     2    46    47    1
     3    46    44    1
     4    44     1    1
     5     1    21    1
     6    21    22    1
     7    22    23    1
     8    22    25    1
     9    25    37    1
    10    37    38    1
    11    38    39   ar
    12    39    40   ar
    13    40    41   ar
    14    41    42   ar
    15    42    43   ar
    16    25    26    1
    17    26    27   am
    18    27    28    2
    19    27    30    1
    20    30    31    1
    21    31    32    1
    22    32    33   ar
    23    33    34   ar
    24    34    35   ar
    25    35    36   ar
    26     1     2   am
    27     2     3    2
    28     2     4    1
    29     4     5   ar
    30     5     6   ar
    31     6     7   ar
    32     7     8   ar
    33     8     9   ar
    34     9    13    1
    35    13    15    1
    36    15    16    1
    37    16    17    1
    38    17    18    1
    39    18    19    1
    40    18    20    1
    41     9    10   ar
    42    10    11   ar
    43    11    12   ar
    44    43    38   ar
    45    36    32   ar
    46    12     4   ar
    47    11     7   ar
    48    23    24    1
    49    26    29    1
    50    13    14    1
@<TRIPOS>MOLECULE
*****
 47 50 0 0 0
SMALL
GASTEIGER

@<TRIPOS>ATOM
      1 N          63.6954   87.0595   13.7816 N.am    1  UNL1       -0.2735
      2 C          62.9350   85.9263   13.1592 C.2     1  UNL1        0.2492
      3 O          62.7211   84.6554   13.9268 O.2     1  UNL1       -0.2699
      4 C          62.3883   86.0638   11.7691 C.ar    1  UNL1        0.0567
      5 C          62.8445   85.1296   10.6879 C.ar    1  UNL1        0.0063
      6 C          62.2978   85.2672    9.2979 C.ar    1  UNL1        0.0225
      7 C          61.2949   86.3390    8.9891 C.ar    1  UNL1        0.1202
      8 N          60.5850   86.7143    7.7221 N.ar    1  UNL1       -0.1948
      9 C          59.6901   87.8806    8.0203 C.ar    1  UNL1        0.2891
     10 O          59.8468   88.2260    9.4715 O.2     1  UNL1       -0.4239
     11 C          60.8387   87.2732   10.0703 C.ar    1  UNL1        0.1662
     12 C          61.3854   87.1357   11.4603 C.ar    1  UNL1        0.0437
     13 N          58.7954   88.5789    7.0394 N.pl3   1  UNL1       -0.2883
     14 H          57.8835   88.2438    6.8798 H       1  UNL1        0.1511
     15 C          59.2900   89.7877    6.3018 C.3     1  UNL1        0.0925
     16 C          58.3403   90.6021    5.4744 C.3     1  UNL1        0.0386
     17 C          58.7477   91.9597    4.9835 C.3     1  UNL1        0.0739
     18 N          59.9388   92.1055    4.0835 N.3     1  UNL1       -0.2703
     19 C          59.8560   92.9763    2.8650 C.3     1  UNL1        0.0897
     20 C          61.2128   91.3806    4.4021 C.3     1  UNL1        0.0897
     21 C          63.9092   88.3304   13.0140 C.3     1  UNL1        0.1245
     22 C          63.4574   89.6396   13.5900 C.3     1  UNL1        0.1484
     23 O          62.0323   89.8164   14.0234 O.3     1  UNL1       -0.3810
     24 H          61.5415   88.9951   13.8637 H       1  UNL1        0.2105
     25 C          64.4307   90.7720   13.7328 C.3     1  UNL1        0.1075
     26 N          64.8034   91.5960   12.5360 N.am    1  UNL1       -0.2695
     27 C          63.8610   91.6992   11.3736 C.2     1  UNL1        0.4020
     28 O          62.5459   90.9785   11.4080 O.2     1  UNL1       -0.2264
     29 H          65.6666   92.0690   12.5135 H       1  UNL1        0.1528
     30 O          64.2337   92.5231   10.1768 O.3     1  UNL1       -0.4291
     31 C          65.1780   93.6790   10.3266 C.3     1  UNL1        0.2447
     32 C          66.6265   93.5147    9.9731 C.ar    1  UNL1        0.0714
     33 C          67.5424   94.5964    9.4821 C.ar    1  UNL1        0.1053
     34 N          68.8953   93.9902    9.2541 N.ar    1  UNL1       -0.2350
     35 C          68.8155   92.5337    9.6041 C.ar    1  UNL1        0.1343
     36 S          67.4133   92.2399   10.0484 S.2     1  UNL1       -0.0652
     37 C          65.0313   91.0804   15.0722 C.3     1  UNL1        0.0485
     38 C          66.3764   91.7387   15.1573 C.ar    1  UNL1       -0.0204
     39 C          66.6568   92.7343   16.2437 C.ar    1  UNL1       -0.0042
     40 C          68.0020   93.3926   16.3288 C.ar    1  UNL1       -0.0003
     41 C          69.0667   93.0553   15.3275 C.ar    1  UNL1       -0.0000
     42 C          68.7863   92.0597   14.2412 C.ar    1  UNL1       -0.0003
     43 C          67.4412   91.4014   14.1561 C.ar    1  UNL1       -0.0042
     44 C          64.2421   86.9220   15.1717 C.3     1  UNL1        0.0937
     45 C          62.7057   85.9750   17.0405 C.3     1  UNL1        0.0018
     46 C          63.3474   87.1446   16.3549 C.3     1  UNL1        0.0199
     47 C          63.0944   88.5369   16.8524 C.3     1  UNL1        0.0018
@<TRIPOS>BOND
     1    45    46    1
     2    46    47    1
     3    46    44    1
     4    44     1    1
     5     1    21    1
     6    21    22    1
     7    22    23    1
     8    22    25    1
     9    25    37    1
    10    37    38    1
    11    38    39   ar
    12    39    40   ar
    13    40    41   ar
    14    41    42   ar
    15    42    43   ar
    16    25    26    1
    17    26    27   am
    18    27    28    2
    19    27    30    1
    20    30    31    1
    21    31    32    1
    22    32    33   ar
    23    33    34   ar
    24    34    35   ar
    25    35    36   ar
    26     1     2   am
    27     2     3    2
    28     2     4    1
    29     4     5   ar
    30     5     6   ar
    31     6     7   ar
    32     7     8   ar
    33     8     9   ar
    34     9    13    1
    35    13    15    1
    36    15    16    1
    37    16    17    1
    38    17    18    1
    39    18    19    1
    40    18    20    1
    41     9    10   ar
    42    10    11   ar
    43    11    12   ar
    44    43    38   ar
    45    36    32   ar
    46    12     4   ar
    47    11     7   ar
    48    23    24    1
    49    26    29    1
    50    13    14    1
@<TRIPOS>MOLECULE
*****
 47 50 0 0 0
SMALL
GASTEIGER

@<TRIPOS>ATOM
      1 N          59.9985   88.7593    8.1997 N.am    1  UNL1       -0.2735
      2 C          59.9023   87.2624    8.1917 C.2     1  UNL1        0.2492
      3 O          58.7429   86.5889    7.5194 O.2     1  UNL1       -0.2699
      4 C          60.9657   86.4390    8.8561 C.ar    1  UNL1        0.0567
      5 C          61.9567   85.6809    8.0237 C.ar    1  UNL1        0.0063
      6 C          63.0200   84.8575    8.6881 C.ar    1  UNL1        0.0225
      7 C          63.0921   84.7922   10.1849 C.ar    1  UNL1        0.1202
      8 N          64.0220   84.0698   11.1144 N.ar    1  UNL1       -0.1948
      9 C          63.6055   84.3816   12.5213 C.ar    1  UNL1        0.2891
     10 O          62.4183   85.2965   12.4613 O.2     1  UNL1       -0.4239
     11 C          62.1011   85.5503   11.0174 C.ar    1  UNL1        0.1662
     12 C          61.0378   86.3737   10.3530 C.ar    1  UNL1        0.0437
     13 N          64.2610   83.8685   13.7691 N.pl3   1  UNL1       -0.2883
     14 H          65.0954   84.2797   14.0916 H       1  UNL1        0.1511
     15 C          63.6453   82.7289   14.5255 C.3     1  UNL1        0.0925
     16 C          62.1534   82.5815   14.5765 C.3     1  UNL1        0.0386
     17 C          61.4829   81.4735   13.8197 C.3     1  UNL1        0.0739
     18 N          62.2988   80.5442   12.9708 N.3     1  UNL1       -0.2703
     19 C          62.7085   80.9566   11.5880 C.3     1  UNL1        0.0897
     20 C          62.7052   79.2026   13.5046 C.3     1  UNL1        0.0897
     21 C          61.1579   89.4328    8.8721 C.3     1  UNL1        0.1245
     22 C          60.9405   90.2234   10.1282 C.3     1  UNL1        0.1484
     23 O          59.5467   90.5002   10.6084 O.3     1  UNL1       -0.3810
     24 H          58.9087   90.1008    9.9967 H       1  UNL1        0.2105
     25 C          62.1170   90.7372   10.9041 C.3     1  UNL1        0.1075
     26 N          62.0320   90.8688   12.3959 N.am    1  UNL1       -0.2695
     27 C          62.5557   89.7733   13.2765 C.2     1  UNL1        0.4020
     28 O          63.1645   88.5462   12.6653 O.2     1  UNL1       -0.2264
     29 H          61.6324   91.6743   12.7970 H       1  UNL1        0.1528
     30 O          62.4707   89.9049   14.7683 O.3     1  UNL1       -0.4291
     31 C          63.5620   89.3480   15.6337 C.3     1  UNL1        0.2447
     32 C          63.4609   87.9467   16.1594 C.ar    1  UNL1        0.0714
     33 C          64.0954   86.7299   15.5536 C.ar    1  UNL1        0.1053
     34 N          63.7343   85.5474   16.4028 N.ar    1  UNL1       -0.2350
     35 C          62.8766   86.0334   17.5335 C.ar    1  UNL1        0.1343
     36 S          62.7076   87.5162   17.3830 S.2     1  UNL1       -0.0652
     37 C          63.3785   91.1194   10.1881 C.3     1  UNL1        0.0485
     38 C          64.3860   92.0020   10.8633 C.ar    1  UNL1       -0.0204
     39 C          64.9296   93.2032   10.1480 C.ar    1  UNL1       -0.0042
     40 C          65.9371   94.0859   10.8232 C.ar    1  UNL1       -0.0003
     41 C          66.4010   93.7674   12.2136 C.ar    1  UNL1       -0.0000
     42 C          65.8574   92.5662   12.9289 C.ar    1  UNL1       -0.0003
     43 C          64.8499   91.6835   12.2537 C.ar    1  UNL1       -0.0042
     44 C          58.9352   89.5827    7.5354 C.3     1  UNL1        0.0937
     45 C          58.0601   90.8341    5.4334 C.3     1  UNL1        0.0018
     46 C          59.1808   90.1703    6.1773 C.3     1  UNL1        0.0199
     47 C          60.5472   90.0942    5.5631 C.3     1  UNL1        0.0018
@<TRIPOS>BOND
     1    45    46    1
     2    46    47    1
     3    46    44    1
     4    44     1    1
     5     1    21    1
     6    21    22    1
     7    22    23    1
     8    22    25    1
     9    25    37    1
    10    37    38    1
    11    38    39   ar
    12    39    40   ar
    13    40    41   ar
    14    41    42   ar
    15    42    43   ar
    16    25    26    1
    17    26    27   am
    18    27    28    2
    19    27    30    1
    20    30    31    1
    21    31    32    1
    22    32    33   ar
    23    33    34   ar
    24    34    35   ar
    25    35    36   ar
    26     1     2   am
    27     2     3    2
    28     2     4    1
    29     4     5   ar
    30     5     6   ar
    31     6     7   ar
    32     7     8   ar
    33     8     9   ar
    34     9    13    1
    35    13    15    1
    36    15    16    1
    37    16    17    1
    38    17    18    1
    39    18    19    1
    40    18    20    1
    41     9    10   ar
    42    10    11   ar
    43    11    12   ar
    44    43    38   ar
    45    36    32   ar
    46    12     4   ar
    47    11     7   ar
    48    23    24    1
    49    26    29    1
    50    13    14    1
@<TRIPOS>MOLECULE
*****
 47 50 0 0 0
SMALL
GASTEIGER

@<TRIPOS>ATOM
      1 N          64.1248   89.8802   14.7748 N.am    1  UNL1       -0.2735
      2 C          63.6755   89.2161   16.0425 C.2     1  UNL1        0.2492
      3 O          63.4844   90.0294   17.2883 O.2     1  UNL1       -0.2699
      4 C          63.4175   87.7385   16.0645 C.ar    1  UNL1        0.0567
      5 C          62.3941   87.1698   17.0021 C.ar    1  UNL1        0.0063
      6 C          62.1360   85.6924   17.0240 C.ar    1  UNL1        0.0225
      7 C          62.9014   84.7837   16.1083 C.ar    1  UNL1        0.1202
      8 N          62.8637   83.2976   15.9073 N.ar    1  UNL1       -0.1948
      9 C          63.8638   82.9480   14.8454 C.ar    1  UNL1        0.2891
     10 O          64.5196   84.2179   14.3902 O.2     1  UNL1       -0.4239
     11 C          63.9248   85.3524   15.1707 C.ar    1  UNL1        0.1662
     12 C          64.1828   86.8299   15.1488 C.ar    1  UNL1        0.0437
     13 N          64.1567   81.5703   14.3294 N.pl3   1  UNL1       -0.2883
     14 H          65.0887   81.2658   14.2406 H       1  UNL1        0.1511
     15 C          63.0296   80.6567   13.9487 C.3     1  UNL1        0.0925
     16 C          62.1900   80.9631   12.7441 C.3     1  UNL1        0.0386
     17 C          62.8454   81.3540   11.4528 C.3     1  UNL1        0.0739
     18 N          63.3232   82.7614   11.2502 N.3     1  UNL1       -0.2703
     19 C          62.4624   83.9141   11.6747 C.3     1  UNL1        0.0897
     20 C          64.6619   83.0160   10.6232 C.3     1  UNL1        0.0897
     21 C          64.3159   89.0669   13.5290 C.3     1  UNL1        0.1245
     22 C          63.1354   88.7211   12.6706 C.3     1  UNL1        0.1484
     23 O          62.8345   87.2866   12.3517 O.3     1  UNL1       -0.3810
     24 H          63.4948   86.7159   12.7751 H       1  UNL1        0.2105
     25 C          62.2558   89.8098   12.1311 C.3     1  UNL1        0.1075
     26 N          62.8095   91.1887   11.9259 N.am    1  UNL1       -0.2695
     27 C          63.5667   91.5140   10.6726 C.2     1  UNL1        0.4020
     28 O          63.7703   90.4603    9.6246 O.2     1  UNL1       -0.2264
     29 H          62.6758   91.8803   12.6138 H       1  UNL1        0.1528
     30 O          64.1204   92.8929   10.4674 O.3     1  UNL1       -0.4291
     31 C          65.3657   93.3161   11.1885 C.3     1  UNL1        0.2447
     32 C          66.6707   93.3884   10.4525 C.ar    1  UNL1        0.0714
     33 C          67.2609   94.6152    9.8226 C.ar    1  UNL1        0.1053
     34 N          68.5696   94.2317    9.1979 N.ar    1  UNL1       -0.2350
     35 C          68.7883   92.7678    9.4418 C.ar    1  UNL1        0.1343
     36 S          67.6147   92.2467   10.2171 S.2     1  UNL1       -0.0652
     37 C          60.8226   89.5196   11.7969 C.3     1  UNL1        0.0485
     38 C          60.4735   88.8745   10.4885 C.ar    1  UNL1       -0.0204
     39 C          60.4161   87.3794   10.3812 C.ar    1  UNL1       -0.0042
     40 C          60.0670   86.7343    9.0727 C.ar    1  UNL1       -0.0003
     41 C          59.7752   87.5842    7.8717 C.ar    1  UNL1       -0.0000
     42 C          59.8325   89.0793    7.9791 C.ar    1  UNL1       -0.0003
     43 C          60.1817   89.7244    9.2874 C.ar    1  UNL1       -0.0042
     44 C          64.3828   91.3577   14.7529 C.3     1  UNL1        0.0937
     45 C          66.8690   91.6504   14.0578 C.3     1  UNL1        0.0018
     46 C          65.7584   91.8831   15.0388 C.3     1  UNL1        0.0199
     47 C          66.0234   92.6412   16.3058 C.3     1  UNL1        0.0018
@<TRIPOS>BOND
     1    45    46    1
     2    46    47    1
     3    46    44    1
     4    44     1    1
     5     1    21    1
     6    21    22    1
     7    22    23    1
     8    22    25    1
     9    25    37    1
    10    37    38    1
    11    38    39   ar
    12    39    40   ar
    13    40    41   ar
    14    41    42   ar
    15    42    43   ar
    16    25    26    1
    17    26    27   am
    18    27    28    2
    19    27    30    1
    20    30    31    1
    21    31    32    1
    22    32    33   ar
    23    33    34   ar
    24    34    35   ar
    25    35    36   ar
    26     1     2   am
    27     2     3    2
    28     2     4    1
    29     4     5   ar
    30     5     6   ar
    31     6     7   ar
    32     7     8   ar
    33     8     9   ar
    34     9    13    1
    35    13    15    1
    36    15    16    1
    37    16    17    1
    38    17    18    1
    39    18    19    1
    40    18    20    1
    41     9    10   ar
    42    10    11   ar
    43    11    12   ar
    44    43    38   ar
    45    36    32   ar
    46    12     4   ar
    47    11     7   ar
    48    23    24    1
    49    26    29    1
    50    13    14    1
@<TRIPOS>MOLECULE
*****
 47 50 0 0 0
SMALL
GASTEIGER

@<TRIPOS>ATOM
      1 N          64.5285   90.8387   14.8090 N.am    1  UNL1       -0.2735
      2 C          63.9385   90.2340   16.0484 C.2     1  UNL1        0.2492
      3 O          63.5960   91.1072   17.2190 O.2     1  UNL1       -0.2699
      4 C          63.6909   88.7562   16.1173 C.ar    1  UNL1        0.0567
      5 C          62.8562   88.1864   17.2256 C.ar    1  UNL1        0.0063
      6 C          62.6086   86.7086   17.2944 C.ar    1  UNL1        0.0225
      7 C          63.1959   85.8006   16.2548 C.ar    1  UNL1        0.1202
      8 N          63.1244   84.3144   16.0643 N.ar    1  UNL1       -0.1948
      9 C          63.9150   83.9657   14.8382 C.ar    1  UNL1        0.2891
     10 O          64.4751   85.2364   14.2710 O.2     1  UNL1       -0.4239
     11 C          64.0306   86.3703   15.1465 C.ar    1  UNL1        0.1662
     12 C          64.2781   87.8481   15.0777 C.ar    1  UNL1        0.0437
     13 N          64.1111   82.5882   14.2777 N.pl3   1  UNL1       -0.2883
     14 H          64.9931   82.3175   13.9341 H       1  UNL1        0.1511
     15 C          62.9634   81.6231   14.2408 C.3     1  UNL1        0.0925
     16 C          62.1239   81.5032   13.0036 C.3     1  UNL1        0.0386
     17 C          62.7467   81.6974   11.6528 C.3     1  UNL1        0.0739
     18 N          63.2696   83.0458   11.2549 N.3     1  UNL1       -0.2703
     19 C          64.5997   83.1627   10.5715 C.3     1  UNL1        0.0897
     20 C          62.4623   84.2775   11.5405 C.3     1  UNL1        0.0897
     21 C          64.8710   89.9656   13.6384 C.3     1  UNL1        0.1245
     22 C          63.8941   89.8047   12.5116 C.3     1  UNL1        0.1484
     23 O          63.1072   88.5348   12.3767 O.3     1  UNL1       -0.3810
     24 H          63.3484   87.9273   13.0935 H       1  UNL1        0.2105
     25 C          63.7040   90.9137   11.5196 C.3     1  UNL1        0.1075
     26 N          62.9047   90.6758   10.2727 N.am    1  UNL1       -0.2695
     27 C          61.4596   90.2859   10.3712 C.2     1  UNL1        0.4020
     28 O          60.8138   90.1339   11.7166 O.2     1  UNL1       -0.2264
     29 H          63.3286   90.7756    9.3898 H       1  UNL1        0.1528
     30 O          60.6603   90.0481    9.1244 O.3     1  UNL1       -0.4291
     31 C          59.6896   88.9062    9.0622 C.3     1  UNL1        0.2447
     32 C          60.1233   87.5826    8.5052 C.ar    1  UNL1        0.0714
     33 C          59.3714   86.7592    7.5019 C.ar    1  UNL1        0.1053
     34 N          60.1684   85.5178    7.2304 N.ar    1  UNL1       -0.2350
     35 C          61.4129   85.5740    8.0659 C.ar    1  UNL1        0.1343
     36 S          61.3850   86.8501    8.8538 S.2     1  UNL1       -0.0652
     37 C          64.3131   92.2605   11.7745 C.3     1  UNL1        0.0485
     38 C          65.5040   92.7075   10.9795 C.ar    1  UNL1       -0.0204
     39 C          65.4930   94.0447   10.3000 C.ar    1  UNL1       -0.0042
     40 C          66.6840   94.4918    9.5050 C.ar    1  UNL1       -0.0003
     41 C          67.8858   93.6016    9.3896 C.ar    1  UNL1       -0.0000
     42 C          67.8967   92.2644   10.0692 C.ar    1  UNL1       -0.0003
     43 C          66.7058   91.8174   10.8641 C.ar    1  UNL1       -0.0042
     44 C          64.7761   92.3166   14.7402 C.3     1  UNL1        0.0937
     45 C          66.9560   92.3731   16.1525 C.3     1  UNL1        0.0018
     46 C          66.1539   92.8583   14.9815 C.3     1  UNL1        0.0199
     47 C          66.7296   93.8851   14.0518 C.3     1  UNL1        0.0018
@<TRIPOS>BOND
     1    45    46    1
     2    46    47    1
     3    46    44    1
     4    44     1    1
     5     1    21    1
     6    21    22    1
     7    22    23    1
     8    22    25    1
     9    25    37    1
    10    37    38    1
    11    38    39   ar
    12    39    40   ar
    13    40    41   ar
    14    41    42   ar
    15    42    43   ar
    16    25    26    1
    17    26    27   am
    18    27    28    2
    19    27    30    1
    20    30    31    1
    21    31    32    1
    22    32    33   ar
    23    33    34   ar
    24    34    35   ar
    25    35    36   ar
    26     1     2   am
    27     2     3    2
    28     2     4    1
    29     4     5   ar
    30     5     6   ar
    31     6     7   ar
    32     7     8   ar
    33     8     9   ar
    34     9    13    1
    35    13    15    1
    36    15    16    1
    37    16    17    1
    38    17    18    1
    39    18    19    1
    40    18    20    1
    41     9    10   ar
    42    10    11   ar
    43    11    12   ar
    44    43    38   ar
    45    36    32   ar
    46    12     4   ar
    47    11     7   ar
    48    23    24    1
    49    26    29    1
    50    13    14    1
@<TRIPOS>MOLECULE
*****
 47 50 0 0 0
SMALL
GASTEIGER

@<TRIPOS>ATOM
      1 N          60.4006   88.8982    8.5370 N.am    1  UNL1       -0.2735
      2 C          60.1667   87.4256    8.3736 C.2     1  UNL1        0.2492
      3 O          58.9313   86.9350    7.6786 O.2     1  UNL1       -0.2699
      4 C          61.1683   86.4436    8.9053 C.ar    1  UNL1        0.0567
      5 C          62.0826   85.7197    7.9620 C.ar    1  UNL1        0.0063
      6 C          63.0841   84.7377    8.4937 C.ar    1  UNL1        0.0225
      7 C          63.1712   84.4796    9.9688 C.ar    1  UNL1        0.1202
      8 N          64.0515   83.5749   10.7792 N.ar    1  UNL1       -0.1948
      9 C          63.6812   83.7397   12.2233 C.ar    1  UNL1        0.2891
     10 O          62.5720   84.7462   12.3055 O.2     1  UNL1       -0.4239
     11 C          62.2568   85.2035   10.9121 C.ar    1  UNL1        0.1662
     12 C          61.2554   86.1855   10.3804 C.ar    1  UNL1        0.0437
     13 N          64.3097   83.0238   13.3820 N.pl3   1  UNL1       -0.2883
     14 H          64.6553   82.1092   13.2666 H       1  UNL1        0.1511
     15 C          64.4115   83.7013   14.7164 C.3     1  UNL1        0.0925
     16 C          64.9885   85.0824   14.8142 C.3     1  UNL1        0.0386
     17 C          64.1603   86.2038   15.3678 C.3     1  UNL1        0.0739
     18 N          62.9981   85.9044   16.2675 N.3     1  UNL1       -0.2703
     19 C          62.0794   84.7616   15.9511 C.3     1  UNL1        0.0897
     20 C          62.7544   86.7479   17.4838 C.3     1  UNL1        0.0897
     21 C          61.6360   89.3888    9.2320 C.3     1  UNL1        0.1245
     22 C          61.5181   90.1895   10.4950 C.3     1  UNL1        0.1484
     23 O          60.1760   90.3873   11.1351 O.3     1  UNL1       -0.3810
     24 H          59.4973   89.9360   10.6092 H       1  UNL1        0.2105
     25 C          62.7423   90.7923   11.1179 C.3     1  UNL1        0.1075
     26 N          62.8948   90.8069   12.6101 N.am    1  UNL1       -0.2695
     27 C          63.2049   89.5364   13.3448 C.2     1  UNL1        0.4020
     28 O          63.3624   88.2513   12.5872 O.2     1  UNL1       -0.2264
     29 H          62.7914   91.6503   13.1073 H       1  UNL1        0.1528
     30 O          63.3574   89.5509   14.8369 O.3     1  UNL1       -0.4291
     31 C          63.6894   90.8312   15.5445 C.3     1  UNL1        0.2447
     32 C          65.0997   91.3423   15.5479 C.ar    1  UNL1        0.0714
     33 C          66.2544   90.7488   14.7966 C.ar    1  UNL1        0.1053
     34 N          67.4712   91.5762   15.0876 N.ar    1  UNL1       -0.2350
     35 C          67.0685   92.6811   16.0188 C.ar    1  UNL1        0.1343
     36 S          65.6028   92.5366   16.3032 S.2     1  UNL1       -0.0652
     37 C          63.8139   91.3805   10.2487 C.3     1  UNL1        0.0485
     38 C          64.6645   92.5037   10.7633 C.ar    1  UNL1       -0.0204
     39 C          64.8905   93.7216    9.9173 C.ar    1  UNL1       -0.0042
     40 C          65.7411   94.8449   10.4319 C.ar    1  UNL1       -0.0003
     41 C          66.3656   94.7503   11.7924 C.ar    1  UNL1       -0.0000
     42 C          66.1395   93.5324   12.6384 C.ar    1  UNL1       -0.0003
     43 C          65.2890   92.4092   12.1239 C.ar    1  UNL1       -0.0042
     44 C          59.3991   89.8802    8.0053 C.3     1  UNL1        0.0937
     45 C          57.8898   90.0249    5.8955 C.3     1  UNL1        0.0018
     46 C          59.2504   90.0728    6.5251 C.3     1  UNL1        0.0199
     47 C          60.4624   90.3132    5.6746 C.3     1  UNL1        0.0018
@<TRIPOS>BOND
     1    45    46    1
     2    46    47    1
     3    46    44    1
     4    44     1    1
     5     1    21    1
     6    21    22    1
     7    22    23    1
     8    22    25    1
     9    25    37    1
    10    37    38    1
    11    38    39   ar
    12    39    40   ar
    13    40    41   ar
    14    41    42   ar
    15    42    43   ar
    16    25    26    1
    17    26    27   am
    18    27    28    2
    19    27    30    1
    20    30    31    1
    21    31    32    1
    22    32    33   ar
    23    33    34   ar
    24    34    35   ar
    25    35    36   ar
    26     1     2   am
    27     2     3    2
    28     2     4    1
    29     4     5   ar
    30     5     6   ar
    31     6     7   ar
    32     7     8   ar
    33     8     9   ar
    34     9    13    1
    35    13    15    1
    36    15    16    1
    37    16    17    1
    38    17    18    1
    39    18    19    1
    40    18    20    1
    41     9    10   ar
    42    10    11   ar
    43    11    12   ar
    44    43    38   ar
    45    36    32   ar
    46    12     4   ar
    47    11     7   ar
    48    23    24    1
    49    26    29    1
    50    13    14    1
@<TRIPOS>MOLECULE
*****
 47 50 0 0 0
SMALL
GASTEIGER

@<TRIPOS>ATOM
      1 N          65.5417   91.4141   15.1924 N.am    1  UNL1       -0.2735
      2 C          64.4422   90.5967   15.8029 C.2     1  UNL1        0.2492
      3 O          63.6832   91.1238   16.9845 O.2     1  UNL1       -0.2699
      4 C          64.1015   89.2521   15.2318 C.ar    1  UNL1        0.0567
      5 C          63.9868   89.0753   13.7467 C.ar    1  UNL1        0.0063
      6 C          63.6462   87.7307   13.1756 C.ar    1  UNL1        0.0225
      7 C          63.4202   86.5630   14.0896 C.ar    1  UNL1        0.1202
      8 N          63.0737   85.1289   13.8190 N.ar    1  UNL1       -0.1948
      9 C          62.9742   84.4194   15.1368 C.ar    1  UNL1        0.2891
     10 O          63.2593   85.4151   16.2219 O.2     1  UNL1       -0.4239
     11 C          63.5349   86.7399   15.5747 C.ar    1  UNL1        0.1662
     12 C          63.8756   88.0844   16.1458 C.ar    1  UNL1        0.0437
     13 N          62.6471   82.9689   15.3348 N.pl3   1  UNL1       -0.2883
     14 H          62.6543   82.5818   16.2400 H       1  UNL1        0.1511
     15 C          62.3090   82.1083   14.1537 C.3     1  UNL1        0.0925
     16 C          63.3970   81.3854   13.4165 C.3     1  UNL1        0.0386
     17 C          64.2295   82.1147   12.4040 C.3     1  UNL1        0.0739
     18 N          63.8416   82.0887   10.9553 N.3     1  UNL1       -0.2703
     19 C          64.1593   83.2591   10.0726 C.3     1  UNL1        0.0897
     20 C          63.1359   80.8921   10.3891 C.3     1  UNL1        0.0897
     21 C          66.3007   90.8871   14.0108 C.3     1  UNL1        0.1245
     22 C          66.7506   91.8244   12.9295 C.3     1  UNL1        0.1484
     23 O          68.1464   91.7306   12.3885 O.3     1  UNL1       -0.3810
     24 H          68.6219   91.0174   12.8425 H       1  UNL1        0.2105
     25 C          65.8045   92.8556   12.3894 C.3     1  UNL1        0.1075
     26 N          64.4206   92.4571   11.9697 N.am    1  UNL1       -0.2695
     27 C          64.1950   91.8359   10.6232 C.2     1  UNL1        0.4020
     28 O          65.3532   91.6131    9.6964 O.2     1  UNL1       -0.2264
     29 H          63.6605   92.6033   12.5780 H       1  UNL1        0.1528
     30 O          62.8111   91.4374   10.2035 O.3     1  UNL1       -0.4291
     31 C          62.1350   90.2706   10.8602 C.3     1  UNL1        0.2447
     32 C          61.5209   89.1897   10.0206 C.ar    1  UNL1        0.0714
     33 C          62.0347   87.7881    9.8741 C.ar    1  UNL1        0.1053
     34 N          61.1167   87.0528    8.9432 N.ar    1  UNL1       -0.2350
     35 C          60.0356   88.0001    8.5143 C.ar    1  UNL1        0.1343
     36 S          60.2854   89.3208    9.1802 S.2     1  UNL1       -0.0652
     37 C          66.2424   94.2852   12.2690 C.3     1  UNL1        0.0485
     38 C          66.5851   94.8538   10.9240 C.ar    1  UNL1       -0.0204
     39 C          66.2701   96.2870   10.6132 C.ar    1  UNL1       -0.0042
     40 C          66.6128   96.8557    9.2681 C.ar    1  UNL1       -0.0003
     41 C          67.2706   95.9910    8.2338 C.ar    1  UNL1       -0.0000
     42 C          67.5856   94.5578    8.5446 C.ar    1  UNL1       -0.0003
     43 C          67.2428   93.9892    9.8896 C.ar    1  UNL1       -0.0042
     44 C          65.8824   92.7587   15.7635 C.3     1  UNL1        0.0937
     45 C          67.8193   94.4283   15.3044 C.3     1  UNL1        0.0018
     46 C          67.3178   93.1608   15.9305 C.3     1  UNL1        0.0199
     47 C          68.2518   92.2954   16.7236 C.3     1  UNL1        0.0018
@<TRIPOS>BOND
     1    45    46    1
     2    46    47    1
     3    46    44    1
     4    44     1    1
     5     1    21    1
     6    21    22    1
     7    22    23    1
     8    22    25    1
     9    25    37    1
    10    37    38    1
    11    38    39   ar
    12    39    40   ar
    13    40    41   ar
    14    41    42   ar
    15    42    43   ar
    16    25    26    1
    17    26    27   am
    18    27    28    2
    19    27    30    1
    20    30    31    1
    21    31    32    1
    22    32    33   ar
    23    33    34   ar
    24    34    35   ar
    25    35    36   ar
    26     1     2   am
    27     2     3    2
    28     2     4    1
    29     4     5   ar
    30     5     6   ar
    31     6     7   ar
    32     7     8   ar
    33     8     9   ar
    34     9    13    1
    35    13    15    1
    36    15    16    1
    37    16    17    1
    38    17    18    1
    39    18    19    1
    40    18    20    1
    41     9    10   ar
    42    10    11   ar
    43    11    12   ar
    44    43    38   ar
    45    36    32   ar
    46    12     4   ar
    47    11     7   ar
    48    23    24    1
    49    26    29    1
    50    13    14    1
