@<TRIPOS>MOLECULE
*****
 36 41 0 0 0
SMALL
GASTEIGER

@<TRIPOS>ATOM
      1 C          65.3372   92.8300   11.9289 C.ar    1  UNL1        0.1219
      2 C          65.7435   92.1918   13.2241 C.ar    1  UNL1        0.0240
      3 C          65.1952   90.8479   13.6026 C.ar    1  UNL1        0.0235
      4 C          64.2406   90.1421   12.6858 C.ar    1  UNL1        0.1166
      5 N          63.8342   90.7802   11.3905 N.ar    1  UNL1       -0.2887
      6 C          64.3825   92.1241   11.0120 C.ar    1  UNL1        0.2772
      7 O          63.9762   92.7623    9.7168 O.2     1  UNL1       -0.2654
      8 C          62.8796   90.0744   10.4738 C.3     1  UNL1        0.1307
      9 C          62.3313   88.7305   10.8522 C.3     1  UNL1        0.1183
     10 N          62.7376   88.0924   12.1475 N.am    1  UNL1       -0.2726
     11 C          63.6923   88.7982   13.0643 C.2     1  UNL1        0.2651
     12 O          64.0986   88.1601   14.3595 O.2     1  UNL1       -0.2683
     13 C          67.2620   96.8539    9.1034 C.3     1  UNL1        0.0538
     14 C          66.7702   96.0234   10.2517 C.ar    1  UNL1        0.0786
     15 C          66.2741   94.6104   10.1689 C.ar    1  UNL1        0.0963
     16 N          65.8855   94.1739   11.5504 N.ar    1  UNL1       -0.2825
     17 C          66.1415   95.3173   12.4869 C.ar    1  UNL1        0.1826
     18 N          66.6882   96.4603   11.6843 N.ar    1  UNL1       -0.2280
     19 C          62.1893   86.7485   12.5260 C.3     1  UNL1        0.0980
     20 C          62.6824   85.5143   11.8305 C.3     1  UNL1        0.0434
     21 C          62.4213   86.1589   10.5015 C.3     1  UNL1        0.0098
     22 C          62.9789   84.7678   10.5637 C.3     1  UNL1        0.0425
     23 C          63.5365   83.3767   10.6260 C.3     1  UNL1        0.1335
     24 C          64.0675   82.0494   10.1718 C.3     1  UNL1        0.0436
     25 C          63.4598   83.5603    9.1392 C.3     1  UNL1        0.0436
     26 O          63.7976   82.7321   11.9550 O.3     1  UNL1       -0.4829
     27 C          63.5011   83.4786   13.2218 C.ar    1  UNL1        0.1342
     28 C          63.7622   82.8340   14.5508 C.ar    1  UNL1        0.0365
     29 C          63.4657   83.5805   15.8176 C.ar    1  UNL1        0.0069
     30 C          62.9081   84.9716   15.7554 C.ar    1  UNL1        0.0713
     31 C          62.6470   85.6162   14.4264 C.ar    1  UNL1        0.0026
     32 C          62.9435   84.8697   13.1596 C.ar    1  UNL1        0.0128
     33 C          62.6116   85.7181   17.0222 C.3     1  UNL1        0.4186
     34 F          62.3151   86.4647   18.2890 F       1  UNL1       -0.1659
     35 F          61.1487   85.6991   16.6910 F       1  UNL1       -0.1659
     36 F          64.0745   85.7372   17.3534 F       1  UNL1       -0.1659
@<TRIPOS>BOND
     1    13    14    1
     2    14    15   ar
     3    15    16   ar
     4    16     1    1
     5     1     2   ar
     6     2     3   ar
     7     3     4   ar
     8     4     5   ar
     9     5     6   ar
    10     6     7    2
    11     5     8    1
    12     8     9    1
    13     9    10    1
    14    10    19    1
    15    20    19    1
    16    20    21    1
    17    22    21    1
    18    22    23    1
    19    23    24    1
    20    23    25    1
    21    23    26    1
    22    26    27    1
    23    27    28   ar
    24    28    29   ar
    25    29    30   ar
    26    30    33    1
    27    33    34    1
    28    33    35    1
    29    33    36    1
    30    30    31   ar
    31    31    32   ar
    32    10    11   am
    33    11    12    2
    34    16    17   ar
    35    17    18   ar
    36    18    14   ar
    37     6     1   ar
    38    22    20    1
    39    32    27   ar
    40    11     4    1
    41    32    20    1
@<TRIPOS>MOLECULE
*****
 36 41 0 0 0
SMALL
GASTEIGER

@<TRIPOS>ATOM
      1 C          62.8632   84.2763   12.2824 C.ar    1  UNL1        0.1219
      2 C          61.9973   85.1804   11.4562 C.ar    1  UNL1        0.0240
      3 C          62.0048   86.6596   11.7053 C.ar    1  UNL1        0.0235
      4 C          62.8782   87.2346   12.7807 C.ar    1  UNL1        0.1166
      5 N          63.7442   86.3304   13.6070 N.ar    1  UNL1       -0.2887
      6 C          63.7366   84.8512   13.3579 C.ar    1  UNL1        0.2772
      7 O          64.6025   83.9471   14.1841 O.2     1  UNL1       -0.2654
      8 C          64.6176   86.9054   14.6824 C.3     1  UNL1        0.1307
      9 C          64.6251   88.3845   14.9316 C.3     1  UNL1        0.1183
     10 N          63.7593   89.2887   14.1053 N.am    1  UNL1       -0.2726
     11 C          62.8858   88.7137   13.0299 C.2     1  UNL1        0.2651
     12 O          62.0199   89.6179   12.2036 O.2     1  UNL1       -0.2683
     13 C          63.1275   79.5896    9.8646 C.3     1  UNL1        0.0538
     14 C          62.9771   80.6429   10.9219 C.ar    1  UNL1        0.0786
     15 C          63.0666   82.1250   10.7090 C.ar    1  UNL1        0.0963
     16 N          62.8556   82.7971   12.0333 N.ar    1  UNL1       -0.2825
     17 C          62.6358   81.7304   13.0647 C.ar    1  UNL1        0.1826
     18 N          62.7109   80.3991   12.3778 N.ar    1  UNL1       -0.2280
     19 C          63.7668   90.7678   14.3545 C.3     1  UNL1        0.0980
     20 C          65.0538   91.4676   14.6766 C.3     1  UNL1        0.0434
     21 C          64.8745   91.1296   16.1270 C.3     1  UNL1        0.0098
     22 C          66.0788   91.9046   15.6808 C.3     1  UNL1        0.0425
     23 C          67.2831   92.6796   15.2346 C.3     1  UNL1        0.1335
     24 C          68.5818   93.4274   15.3001 C.3     1  UNL1        0.0436
     25 C          67.5548   92.6014   16.7078 C.3     1  UNL1        0.0436
     26 O          67.4625   93.0175   13.7842 O.3     1  UNL1       -0.4829
     27 C          66.4375   92.5805   12.7800 C.ar    1  UNL1        0.1342
     28 C          66.6168   92.9184   11.3297 C.ar    1  UNL1        0.0365
     29 C          65.5918   92.4813   10.3255 C.ar    1  UNL1        0.0069
     30 C          64.3876   91.7064   10.7716 C.ar    1  UNL1        0.0713
     31 C          64.2082   91.3685   12.2220 C.ar    1  UNL1        0.0026
     32 C          65.2332   91.8055   13.2262 C.ar    1  UNL1        0.0128
     33 C          63.3626   91.2693    9.7674 C.3     1  UNL1        0.4186
     34 F          62.3376   90.8323    8.7632 F       1  UNL1       -0.1659
     35 F          63.6578   89.8346   10.0905 F       1  UNL1       -0.1659
     36 F          63.0674   92.7040    9.4443 F       1  UNL1       -0.1659
@<TRIPOS>BOND
     1    13    14    1
     2    14    15   ar
     3    15    16   ar
     4    16     1    1
     5     1     2   ar
     6     2     3   ar
     7     3     4   ar
     8     4     5   ar
     9     5     6   ar
    10     6     7    2
    11     5     8    1
    12     8     9    1
    13     9    10    1
    14    10    19    1
    15    20    19    1
    16    20    21    1
    17    22    21    1
    18    22    23    1
    19    23    24    1
    20    23    25    1
    21    23    26    1
    22    26    27    1
    23    27    28   ar
    24    28    29   ar
    25    29    30   ar
    26    30    33    1
    27    33    34    1
    28    33    35    1
    29    33    36    1
    30    30    31   ar
    31    31    32   ar
    32    10    11   am
    33    11    12    2
    34    16    17   ar
    35    17    18   ar
    36    18    14   ar
    37     6     1   ar
    38    22    20    1
    39    32    27   ar
    40    11     4    1
    41    32    20    1
@<TRIPOS>MOLECULE
*****
 36 41 0 0 0
SMALL
GASTEIGER

@<TRIPOS>ATOM
      1 C          62.6809   84.4632   11.8568 C.ar    1  UNL1        0.1219
      2 C          61.9626   85.0759   10.6912 C.ar    1  UNL1        0.0240
      3 C          61.9636   86.5646   10.5080 C.ar    1  UNL1        0.0235
      4 C          62.6828   87.4407   11.4904 C.ar    1  UNL1        0.1166
      5 N          63.4011   86.8281   12.6561 N.ar    1  UNL1       -0.2887
      6 C          63.4002   85.3393   12.8393 C.ar    1  UNL1        0.2772
      7 O          64.1185   84.7267   14.0049 O.2     1  UNL1       -0.2654
      8 C          64.1203   87.7042   13.6384 C.3     1  UNL1        0.1307
      9 C          64.1212   89.1930   13.4552 C.3     1  UNL1        0.1183
     10 N          63.4029   89.8056   12.2896 N.am    1  UNL1       -0.2726
     11 C          62.6837   88.9295   11.3072 C.2     1  UNL1        0.2651
     12 O          61.9654   89.5422   10.1416 O.2     1  UNL1       -0.2683
     13 C          61.9412   79.6573   13.9152 C.3     1  UNL1        0.0538
     14 C          62.3400   80.7655   12.9862 C.ar    1  UNL1        0.0786
     15 C          62.1316   82.2319   13.2224 C.ar    1  UNL1        0.0963
     16 N          62.6800   82.9744   12.0401 N.ar    1  UNL1       -0.2825
     17 C          63.2274   81.9668   11.0732 C.ar    1  UNL1        0.1826
     18 N          63.0173   80.6016   11.6579 N.ar    1  UNL1       -0.2280
     19 C          63.4038   91.2944   12.1064 C.3     1  UNL1        0.0980
     20 C          64.6115   91.9795   11.5389 C.3     1  UNL1        0.0434
     21 C          64.0634   91.7990   10.1544 C.3     1  UNL1        0.0098
     22 C          65.3834   92.4826   10.3552 C.3     1  UNL1        0.0425
     23 C          66.7034   93.1661   10.5561 C.3     1  UNL1        0.1335
     24 C          67.9880   93.8722   10.2376 C.3     1  UNL1        0.0436
     25 C          66.6014   93.2309    9.0609 C.3     1  UNL1        0.0436
     26 O          67.2516   93.3466   11.9406 O.3     1  UNL1       -0.4829
     27 C          66.4797   92.8435   13.1243 C.ar    1  UNL1        0.1342
     28 C          67.0279   93.0240   14.5088 C.ar    1  UNL1        0.0365
     29 C          66.2560   92.5209   15.6925 C.ar    1  UNL1        0.0069
     30 C          64.9360   91.8374   15.4917 C.ar    1  UNL1        0.0713
     31 C          64.3879   91.6569   14.1072 C.ar    1  UNL1        0.0026
     32 C          65.1598   92.1600   12.9235 C.ar    1  UNL1        0.0128
     33 C          64.1642   91.3343   16.6754 C.3     1  UNL1        0.4186
     34 F          63.3924   90.8313   17.8592 F       1  UNL1       -0.1659
     35 F          64.9004   92.2935   17.5631 F       1  UNL1       -0.1659
     36 F          63.4279   90.3752   15.7877 F       1  UNL1       -0.1659
@<TRIPOS>BOND
     1    13    14    1
     2    14    15   ar
     3    15    16   ar
     4    16     1    1
     5     1     2   ar
     6     2     3   ar
     7     3     4   ar
     8     4     5   ar
     9     5     6   ar
    10     6     7    2
    11     5     8    1
    12     8     9    1
    13     9    10    1
    14    10    19    1
    15    20    19    1
    16    20    21    1
    17    22    21    1
    18    22    23    1
    19    23    24    1
    20    23    25    1
    21    23    26    1
    22    26    27    1
    23    27    28   ar
    24    28    29   ar
    25    29    30   ar
    26    30    33    1
    27    33    34    1
    28    33    35    1
    29    33    36    1
    30    30    31   ar
    31    31    32   ar
    32    10    11   am
    33    11    12    2
    34    16    17   ar
    35    17    18   ar
    36    18    14   ar
    37     6     1   ar
    38    22    20    1
    39    32    27   ar
    40    11     4    1
    41    32    20    1
@<TRIPOS>MOLECULE
*****
 36 41 0 0 0
SMALL
GASTEIGER

@<TRIPOS>ATOM
      1 C          66.3266   92.0236   14.4452 C.ar    1  UNL1        0.1219
      2 C          65.4799   91.4041   15.5172 C.ar    1  UNL1        0.0240
      3 C          64.1915   90.7256   15.1569 C.ar    1  UNL1        0.0235
      4 C          63.7499   90.6666   13.7246 C.ar    1  UNL1        0.1166
      5 N          64.5967   91.2861   12.6525 N.ar    1  UNL1       -0.2887
      6 C          65.8851   91.9646   13.0128 C.ar    1  UNL1        0.2772
      7 O          66.7319   92.5840   11.9408 O.2     1  UNL1       -0.2654
      8 C          64.1552   91.2270   11.2202 C.3     1  UNL1        0.1307
      9 C          62.8668   90.5485   10.8599 C.3     1  UNL1        0.1183
     10 N          62.0200   89.9291   11.9319 N.am    1  UNL1       -0.2726
     11 C          62.4616   89.9881   13.3643 C.2     1  UNL1        0.2651
     12 O          61.6148   89.3687   14.4363 O.2     1  UNL1       -0.2683
     13 C          69.8137   95.4037   16.5179 C.3     1  UNL1        0.0538
     14 C          69.2178   94.2557   15.7582 C.ar    1  UNL1        0.0786
     15 C          67.7579   93.9254   15.6616 C.ar    1  UNL1        0.0963
     16 N          67.6150   92.7021   14.8055 N.ar    1  UNL1       -0.2825
     17 C          68.9867   92.2764   14.3729 C.ar    1  UNL1        0.1826
     18 N          69.9772   93.2365   14.9616 N.ar    1  UNL1       -0.2280
     19 C          60.7317   89.2506   11.5716 C.3     1  UNL1        0.0980
     20 C          60.3790   89.0273   10.1309 C.3     1  UNL1        0.0434
     21 C          59.6885   90.3584   10.0936 C.3     1  UNL1        0.0098
     22 C          59.7283   89.4995    8.8646 C.3     1  UNL1        0.0425
     23 C          59.7681   88.6405    7.6355 C.3     1  UNL1        0.1335
     24 C          59.5405   88.1896    6.2231 C.3     1  UNL1        0.0436
     25 C          58.9986   89.8150    7.1077 C.3     1  UNL1        0.0436
     26 O          60.4585   87.3094    7.6727 O.3     1  UNL1       -0.4829
     27 C          61.1092   86.8372    8.9391 C.ar    1  UNL1        0.1342
     28 C          61.7996   85.5061    8.9763 C.ar    1  UNL1        0.0365
     29 C          62.4503   85.0339   10.2427 C.ar    1  UNL1        0.0069
     30 C          62.4106   85.8928   11.4718 C.ar    1  UNL1        0.0713
     31 C          61.7201   87.2239   11.4345 C.ar    1  UNL1        0.0026
     32 C          61.0694   87.6961   10.1681 C.ar    1  UNL1        0.0128
     33 C          63.0613   85.4207   12.7381 C.3     1  UNL1        0.4186
     34 F          63.7120   84.9485   14.0044 F       1  UNL1       -0.1659
     35 F          63.5963   86.8013   12.9780 F       1  UNL1       -0.1659
     36 F          62.5263   84.0400   12.4982 F       1  UNL1       -0.1659
@<TRIPOS>BOND
     1    13    14    1
     2    14    15   ar
     3    15    16   ar
     4    16     1    1
     5     1     2   ar
     6     2     3   ar
     7     3     4   ar
     8     4     5   ar
     9     5     6   ar
    10     6     7    2
    11     5     8    1
    12     8     9    1
    13     9    10    1
    14    10    19    1
    15    20    19    1
    16    20    21    1
    17    22    21    1
    18    22    23    1
    19    23    24    1
    20    23    25    1
    21    23    26    1
    22    26    27    1
    23    27    28   ar
    24    28    29   ar
    25    29    30   ar
    26    30    33    1
    27    33    34    1
    28    33    35    1
    29    33    36    1
    30    30    31   ar
    31    31    32   ar
    32    10    11   am
    33    11    12    2
    34    16    17   ar
    35    17    18   ar
    36    18    14   ar
    37     6     1   ar
    38    22    20    1
    39    32    27   ar
    40    11     4    1
    41    32    20    1
@<TRIPOS>MOLECULE
*****
 36 41 0 0 0
SMALL
GASTEIGER

@<TRIPOS>ATOM
      1 C          59.9837   89.3146    7.8683 C.ar    1  UNL1        0.1219
      2 C          60.5875   90.1518    8.9566 C.ar    1  UNL1        0.0240
      3 C          61.4116   89.5055   10.0303 C.ar    1  UNL1        0.0235
      4 C          61.6320   88.0218   10.0158 C.ar    1  UNL1        0.1166
      5 N          61.0282   87.1845    8.9275 N.ar    1  UNL1       -0.2887
      6 C          60.2041   87.8309    7.8537 C.ar    1  UNL1        0.2772
      7 O          59.6003   86.9936    6.7655 O.2     1  UNL1       -0.2654
      8 C          61.2485   85.7009    8.9130 C.3     1  UNL1        0.1307
      9 C          62.0727   85.0545    9.9868 C.3     1  UNL1        0.1183
     10 N          62.6765   85.8917   11.0751 N.am    1  UNL1       -0.2726
     11 C          62.4561   87.3755   11.0896 C.2     1  UNL1        0.2651
     12 O          63.0599   88.2127   12.1779 O.2     1  UNL1       -0.2683
     13 C          58.5661   92.1830    3.6679 C.3     1  UNL1        0.0538
     14 C          58.5080   91.2794    4.8638 C.ar    1  UNL1        0.0786
     15 C          59.6728   90.8648    5.7130 C.ar    1  UNL1        0.0963
     16 N          59.1596   89.9610    6.7945 N.ar    1  UNL1       -0.2825
     17 C          57.6775   89.8170    6.6137 C.ar    1  UNL1        0.1826
     18 N          57.2748   90.6318    5.4205 N.ar    1  UNL1       -0.2280
     19 C          63.5006   85.2454   12.1489 C.3     1  UNL1        0.0980
     20 C          63.1875   83.8482   12.5959 C.3     1  UNL1        0.0434
     21 C          63.2544   83.3780   11.1731 C.3     1  UNL1        0.0098
     22 C          62.9498   82.4031   12.2715 C.3     1  UNL1        0.0425
     23 C          62.6451   81.4282   13.3701 C.3     1  UNL1        0.1335
     24 C          62.3251   80.1338   14.0573 C.3     1  UNL1        0.0436
     25 C          62.6009   80.5085   12.1859 C.3     1  UNL1        0.0436
     26 O          62.5781   81.8984   14.7929 O.3     1  UNL1       -0.4829
     27 C          62.8158   83.3435   15.1172 C.ar    1  UNL1        0.1342
     28 C          62.7489   83.8137   16.5400 C.ar    1  UNL1        0.0365
     29 C          62.9866   85.2588   16.8643 C.ar    1  UNL1        0.0069
     30 C          63.2912   86.2337   15.7659 C.ar    1  UNL1        0.0713
     31 C          63.3582   85.7635   14.3431 C.ar    1  UNL1        0.0026
     32 C          63.1205   84.3184   14.0187 C.ar    1  UNL1        0.0128
     33 C          63.5289   87.6788   16.0902 C.3     1  UNL1        0.4186
     34 F          63.7666   89.1239   16.4145 F       1  UNL1       -0.1659
     35 F          64.4617   87.7878   14.9206 F       1  UNL1       -0.1659
     36 F          62.5961   87.5697   17.2598 F       1  UNL1       -0.1659
@<TRIPOS>BOND
     1    13    14    1
     2    14    15   ar
     3    15    16   ar
     4    16     1    1
     5     1     2   ar
     6     2     3   ar
     7     3     4   ar
     8     4     5   ar
     9     5     6   ar
    10     6     7    2
    11     5     8    1
    12     8     9    1
    13     9    10    1
    14    10    19    1
    15    20    19    1
    16    20    21    1
    17    22    21    1
    18    22    23    1
    19    23    24    1
    20    23    25    1
    21    23    26    1
    22    26    27    1
    23    27    28   ar
    24    28    29   ar
    25    29    30   ar
    26    30    33    1
    27    33    34    1
    28    33    35    1
    29    33    36    1
    30    30    31   ar
    31    31    32   ar
    32    10    11   am
    33    11    12    2
    34    16    17   ar
    35    17    18   ar
    36    18    14   ar
    37     6     1   ar
    38    22    20    1
    39    32    27   ar
    40    11     4    1
    41    32    20    1
@<TRIPOS>MOLECULE
*****
 36 41 0 0 0
SMALL
GASTEIGER

@<TRIPOS>ATOM
      1 C          65.5763   91.2879   14.0081 C.ar    1  UNL1        0.1219
      2 C          65.4791   90.1017   14.9211 C.ar    1  UNL1        0.0240
      3 C          64.6368   88.9230   14.5322 C.ar    1  UNL1        0.0235
      4 C          63.8918   88.9304   13.2303 C.ar    1  UNL1        0.1166
      5 N          63.9890   90.1166   12.3173 N.ar    1  UNL1       -0.2887
      6 C          64.8312   91.2954   12.7062 C.ar    1  UNL1        0.2772
      7 O          64.9285   92.4815   11.7933 O.2     1  UNL1       -0.2654
      8 C          63.2440   90.1241   11.0155 C.3     1  UNL1        0.1307
      9 C          62.4018   88.9454   10.6266 C.3     1  UNL1        0.1183
     10 N          62.3046   87.7592   11.5395 N.am    1  UNL1       -0.2726
     11 C          63.0496   87.7517   12.8414 C.2     1  UNL1        0.2651
     12 O          62.9524   86.5655   13.7543 O.2     1  UNL1       -0.2683
     13 C          69.1610   94.3198   16.4243 C.3     1  UNL1        0.0538
     14 C          68.0662   93.8602   15.5076 C.ar    1  UNL1        0.0786
     15 C          67.4825   92.4795   15.4543 C.ar    1  UNL1        0.0963
     16 N          66.4185   92.4666   14.3971 N.ar    1  UNL1       -0.2825
     17 C          66.3446   93.8394   13.7971 C.ar    1  UNL1        0.1826
     18 N          67.3629   94.7006   14.4834 N.ar    1  UNL1       -0.2280
     19 C          61.4623   86.5805   11.1506 C.3     1  UNL1        0.0980
     20 C          61.5749   86.0005    9.7719 C.3     1  UNL1        0.0434
     21 C          60.6317   87.0459    9.2550 C.3     1  UNL1        0.0098
     22 C          61.2008   86.0209    8.3194 C.3     1  UNL1        0.0425
     23 C          61.7700   84.9958    7.3838 C.3     1  UNL1        0.1335
     24 C          62.0447   84.2431    6.1158 C.3     1  UNL1        0.0436
     25 C          60.9221   85.7799    6.4265 C.3     1  UNL1        0.0436
     26 O          62.7133   83.9503    7.9007 O.3     1  UNL1       -0.4829
     27 C          63.0874   83.9299    9.3531 C.ar    1  UNL1        0.1342
     28 C          64.0306   82.8844    9.8700 C.ar    1  UNL1        0.0365
     29 C          64.4048   82.8639   11.3225 C.ar    1  UNL1        0.0069
     30 C          63.8356   83.8890   12.2580 C.ar    1  UNL1        0.0713
     31 C          62.8924   84.9344   11.7412 C.ar    1  UNL1        0.0026
     32 C          62.5183   84.9549   10.2887 C.ar    1  UNL1        0.0128
     33 C          64.2097   83.8685   13.7105 C.3     1  UNL1        0.4186
     34 F          64.5838   83.8480   15.1630 F       1  UNL1       -0.1659
     35 F          62.9367   83.1416   14.0282 F       1  UNL1       -0.1659
     36 F          65.4828   84.5954   13.3928 F       1  UNL1       -0.1659
@<TRIPOS>BOND
     1    13    14    1
     2    14    15   ar
     3    15    16   ar
     4    16     1    1
     5     1     2   ar
     6     2     3   ar
     7     3     4   ar
     8     4     5   ar
     9     5     6   ar
    10     6     7    2
    11     5     8    1
    12     8     9    1
    13     9    10    1
    14    10    19    1
    15    20    19    1
    16    20    21    1
    17    22    21    1
    18    22    23    1
    19    23    24    1
    20    23    25    1
    21    23    26    1
    22    26    27    1
    23    27    28   ar
    24    28    29   ar
    25    29    30   ar
    26    30    33    1
    27    33    34    1
    28    33    35    1
    29    33    36    1
    30    30    31   ar
    31    31    32   ar
    32    10    11   am
    33    11    12    2
    34    16    17   ar
    35    17    18   ar
    36    18    14   ar
    37     6     1   ar
    38    22    20    1
    39    32    27   ar
    40    11     4    1
    41    32    20    1
@<TRIPOS>MOLECULE
*****
 36 41 0 0 0
SMALL
GASTEIGER

@<TRIPOS>ATOM
      1 C          63.1776   84.6300   12.9302 C.ar    1  UNL1        0.1219
      2 C          64.0125   85.1217   14.0752 C.ar    1  UNL1        0.0240
      3 C          64.2958   86.5874   14.2216 C.ar    1  UNL1        0.0235
      4 C          63.7443   87.5614   13.2230 C.ar    1  UNL1        0.1166
      5 N          62.9094   87.0696   12.0779 N.ar    1  UNL1       -0.2887
      6 C          62.6260   85.6039   11.9315 C.ar    1  UNL1        0.2772
      7 O          61.7912   85.1121   10.7865 O.2     1  UNL1       -0.2654
      8 C          62.3579   88.0435   11.0793 C.3     1  UNL1        0.1307
      9 C          62.6412   89.5092   11.2257 C.3     1  UNL1        0.1183
     10 N          63.4761   90.0010   12.3707 N.am    1  UNL1       -0.2726
     11 C          64.0277   89.0271   13.3694 C.2     1  UNL1        0.2651
     12 O          64.8625   89.5188   14.5144 O.2     1  UNL1       -0.2683
     13 C          61.5079   79.7162   13.9037 C.3     1  UNL1        0.0538
     14 C          62.1268   80.9057   13.2312 C.ar    1  UNL1        0.0786
     15 C          62.1914   82.2977   13.7863 C.ar    1  UNL1        0.0963
     16 N          62.8943   83.1643   12.7838 N.ar    1  UNL1       -0.2825
     17 C          63.2640   82.3078   11.6092 C.ar    1  UNL1        0.1826
     18 N          62.7897   80.9120   11.8857 N.ar    1  UNL1       -0.2280
     19 C          63.7594   91.4667   12.5172 C.3     1  UNL1        0.0980
     20 C          64.8632   92.1002   11.7233 C.3     1  UNL1        0.0434
     21 C          64.1617   91.7278   10.4508 C.3     1  UNL1        0.0098
     22 C          65.4684   92.4626   10.3995 C.3     1  UNL1        0.0425
     23 C          66.7751   93.1974   10.3482 C.3     1  UNL1        0.1335
     24 C          67.9839   93.8859    9.7872 C.3     1  UNL1        0.0436
     25 C          66.4934   93.0641    8.8808 C.3     1  UNL1        0.0436
     26 O          67.4766   93.5698   11.6206 O.3     1  UNL1       -0.4829
     27 C          66.8715   93.2074   12.9444 C.ar    1  UNL1        0.1342
     28 C          67.5729   93.5798   14.2169 C.ar    1  UNL1        0.0365
     29 C          66.9678   93.2174   15.5407 C.ar    1  UNL1        0.0069
     30 C          65.6611   92.4826   15.5920 C.ar    1  UNL1        0.0713
     31 C          64.9596   92.1102   14.3196 C.ar    1  UNL1        0.0026
     32 C          65.5648   92.4726   12.9958 C.ar    1  UNL1        0.0128
     33 C          65.0560   92.1202   16.9158 C.3     1  UNL1        0.4186
     34 F          64.4508   91.7578   18.2396 F       1  UNL1       -0.1659
     35 F          63.7673   91.7722   16.2315 F       1  UNL1       -0.1659
     36 F          66.3446   92.4681   17.6001 F       1  UNL1       -0.1659
@<TRIPOS>BOND
     1    13    14    1
     2    14    15   ar
     3    15    16   ar
     4    16     1    1
     5     1     2   ar
     6     2     3   ar
     7     3     4   ar
     8     4     5   ar
     9     5     6   ar
    10     6     7    2
    11     5     8    1
    12     8     9    1
    13     9    10    1
    14    10    19    1
    15    20    19    1
    16    20    21    1
    17    22    21    1
    18    22    23    1
    19    23    24    1
    20    23    25    1
    21    23    26    1
    22    26    27    1
    23    27    28   ar
    24    28    29   ar
    25    29    30   ar
    26    30    33    1
    27    33    34    1
    28    33    35    1
    29    33    36    1
    30    30    31   ar
    31    31    32   ar
    32    10    11   am
    33    11    12    2
    34    16    17   ar
    35    17    18   ar
    36    18    14   ar
    37     6     1   ar
    38    22    20    1
    39    32    27   ar
    40    11     4    1
    41    32    20    1
@<TRIPOS>MOLECULE
*****
 36 41 0 0 0
SMALL
GASTEIGER

@<TRIPOS>ATOM
      1 C          63.0755   84.3276   14.9383 C.ar    1  UNL1        0.1219
      2 C          62.9284   84.8203   16.3474 C.ar    1  UNL1        0.0240
      3 C          63.0772   86.2818   16.6503 C.ar    1  UNL1        0.0235
      4 C          63.3731   87.2507   15.5442 C.ar    1  UNL1        0.1166
      5 N          63.5203   86.7581   14.1350 N.ar    1  UNL1       -0.2887
      6 C          63.3715   85.2965   13.8320 C.ar    1  UNL1        0.2772
      7 O          63.5187   84.8039   12.4229 O.2     1  UNL1       -0.2654
      8 C          63.8163   87.7270   13.0288 C.3     1  UNL1        0.1307
      9 C          63.9651   89.1885   13.3318 C.3     1  UNL1        0.1183
     10 N          63.8179   89.6812   14.7409 N.am    1  UNL1       -0.2726
     11 C          63.5219   88.7122   15.8471 C.2     1  UNL1        0.2651
     12 O          63.3747   89.2049   17.2562 O.2     1  UNL1       -0.2683
     13 C          60.9542   79.6007   13.9199 C.3     1  UNL1        0.0538
     14 C          61.9517   80.6934   14.1672 C.ar    1  UNL1        0.0786
     15 C          61.6321   82.1306   14.4542 C.ar    1  UNL1        0.0963
     16 N          62.9268   82.8661   14.6353 N.ar    1  UNL1       -0.2825
     17 C          64.0465   81.8835   14.4604 C.ar    1  UNL1        0.1826
     18 N          63.4439   80.5407   14.1711 N.ar    1  UNL1       -0.2280
     19 C          63.9667   91.1427   15.0438 C.3     1  UNL1        0.0980
     20 C          65.3303   91.7667   15.0772 C.3     1  UNL1        0.0434
     21 C          65.3776   91.5837   16.5652 C.3     1  UNL1        0.0098
     22 C          66.5349   92.2156   15.8501 C.3     1  UNL1        0.0425
     23 C          67.6922   92.8475   15.1349 C.3     1  UNL1        0.1335
     24 C          69.0269   93.4938   14.9095 C.3     1  UNL1        0.0436
     25 C          68.2031   92.8890   16.5447 C.3     1  UNL1        0.0436
     26 O          67.6448   93.0306   13.6469 O.3     1  UNL1       -0.4829
     27 C          66.4402   92.5817   12.8740 C.ar    1  UNL1        0.1342
     28 C          66.3929   92.7647   11.3860 C.ar    1  UNL1        0.0365
     29 C          65.1883   92.3158   10.6131 C.ar    1  UNL1        0.0069
     30 C          64.0310   91.6839   11.3281 C.ar    1  UNL1        0.0713
     31 C          64.0784   91.5009   12.8161 C.ar    1  UNL1        0.0026
     32 C          65.2830   91.9498   13.5891 C.ar    1  UNL1        0.0128
     33 C          62.8264   91.2350   10.5552 C.3     1  UNL1        0.4186
     34 F          61.6218   90.7861    9.7823 F       1  UNL1       -0.1659
     35 F          63.5187   91.5870    9.2719 F       1  UNL1       -0.1659
     36 F          62.1342   90.8830   11.8385 F       1  UNL1       -0.1659
@<TRIPOS>BOND
     1    13    14    1
     2    14    15   ar
     3    15    16   ar
     4    16     1    1
     5     1     2   ar
     6     2     3   ar
     7     3     4   ar
     8     4     5   ar
     9     5     6   ar
    10     6     7    2
    11     5     8    1
    12     8     9    1
    13     9    10    1
    14    10    19    1
    15    20    19    1
    16    20    21    1
    17    22    21    1
    18    22    23    1
    19    23    24    1
    20    23    25    1
    21    23    26    1
    22    26    27    1
    23    27    28   ar
    24    28    29   ar
    25    29    30   ar
    26    30    33    1
    27    33    34    1
    28    33    35    1
    29    33    36    1
    30    30    31   ar
    31    31    32   ar
    32    10    11   am
    33    11    12    2
    34    16    17   ar
    35    17    18   ar
    36    18    14   ar
    37     6     1   ar
    38    22    20    1
    39    32    27   ar
    40    11     4    1
    41    32    20    1
@<TRIPOS>MOLECULE
*****
 36 41 0 0 0
SMALL
GASTEIGER

@<TRIPOS>ATOM
      1 C          65.2252   92.7640   11.7968 C.ar    1  UNL1        0.1219
      2 C          65.5509   92.0071   13.0502 C.ar    1  UNL1        0.0240
      3 C          64.9249   90.6674   13.3014 C.ar    1  UNL1        0.0235
      4 C          63.9732   90.0845   12.2993 C.ar    1  UNL1        0.1166
      5 N          63.6474   90.8414   11.0458 N.ar    1  UNL1       -0.2887
      6 C          64.2734   92.1811   10.7946 C.ar    1  UNL1        0.2772
      7 O          63.9477   92.9380    9.5412 O.2     1  UNL1       -0.2654
      8 C          62.6957   90.2585   10.0436 C.3     1  UNL1        0.1307
      9 C          62.0696   88.9187   10.2948 C.3     1  UNL1        0.1183
     10 N          62.3954   88.1618   11.5482 N.am    1  UNL1       -0.2726
     11 C          63.3471   88.7447   12.5505 C.2     1  UNL1        0.2651
     12 O          63.6728   87.9878   13.8039 O.2     1  UNL1       -0.2683
     13 C          67.5355   96.8550    9.3871 C.3     1  UNL1        0.0538
     14 C          66.9132   95.9842   10.4380 C.ar    1  UNL1        0.0786
     15 C          66.3787   94.5980   10.2313 C.ar    1  UNL1        0.0963
     16 N          65.8513   94.1038   11.5456 N.ar    1  UNL1       -0.2825
     17 C          66.0598   95.1846   12.5646 C.ar    1  UNL1        0.1826
     18 N          66.7160   96.3467   11.8801 N.ar    1  UNL1       -0.2280
     19 C          61.7693   86.8221   11.7994 C.3     1  UNL1        0.0980
     20 C          62.5364   85.5680   11.5013 C.3     1  UNL1        0.0434
     21 C          63.0875   85.5734   12.8963 C.3     1  UNL1        0.0098
     22 C          63.4762   84.4847   11.9406 C.3     1  UNL1        0.0425
     23 C          63.8650   83.3959   10.9848 C.3     1  UNL1        0.1335
     24 C          64.5248   82.1600   10.4490 C.3     1  UNL1        0.0436
     25 C          64.6453   82.9720   12.1938 C.3     1  UNL1        0.0436
     26 O          63.3139   83.3905    9.5897 O.3     1  UNL1       -0.4829
     27 C          62.3741   84.4739    9.1504 C.ar    1  UNL1        0.1342
     28 C          61.8230   84.4685    7.7553 C.ar    1  UNL1        0.0365
     29 C          60.8831   85.5518    7.3160 C.ar    1  UNL1        0.0069
     30 C          60.4944   86.6406    8.2717 C.ar    1  UNL1        0.0713
     31 C          61.0454   86.6459    9.6668 C.ar    1  UNL1        0.0026
     32 C          61.9853   85.5626   10.1061 C.ar    1  UNL1        0.0128
     33 C          59.5545   87.7239    7.8324 C.3     1  UNL1        0.4186
     34 F          58.6146   88.8073    7.3931 F       1  UNL1       -0.1659
     35 F          60.6436   88.7402    8.0085 F       1  UNL1       -0.1659
     36 F          58.4654   86.7076    7.6563 F       1  UNL1       -0.1659
@<TRIPOS>BOND
     1    13    14    1
     2    14    15   ar
     3    15    16   ar
     4    16     1    1
     5     1     2   ar
     6     2     3   ar
     7     3     4   ar
     8     4     5   ar
     9     5     6   ar
    10     6     7    2
    11     5     8    1
    12     8     9    1
    13     9    10    1
    14    10    19    1
    15    20    19    1
    16    20    21    1
    17    22    21    1
    18    22    23    1
    19    23    24    1
    20    23    25    1
    21    23    26    1
    22    26    27    1
    23    27    28   ar
    24    28    29   ar
    25    29    30   ar
    26    30    33    1
    27    33    34    1
    28    33    35    1
    29    33    36    1
    30    30    31   ar
    31    31    32   ar
    32    10    11   am
    33    11    12    2
    34    16    17   ar
    35    17    18   ar
    36    18    14   ar
    37     6     1   ar
    38    22    20    1
    39    32    27   ar
    40    11     4    1
    41    32    20    1
