@<TRIPOS>MOLECULE
*****
 55 59 0 0 0
SMALL
GASTEIGER

@<TRIPOS>ATOM
      1 C          60.5327   89.6611    9.3795 C.2     1  UNL1        0.2404
      2 O          59.6646   90.4310   10.3302 O.2     1  UNL1       -0.2733
      3 N          61.9454   89.3269    9.7568 N.am    1  UNL1       -0.3042
      4 H          62.5152   88.8216    9.1328 H       1  UNL1        0.1494
      5 C          62.4902   89.7624   11.0848 C.3     1  UNL1        0.0777
      6 C          62.6676   88.7612   12.1876 C.3     1  UNL1        0.0415
      7 C          62.6617   87.2939   11.8764 C.3     1  UNL1        0.0988
      8 N          63.4414   86.3421   12.7344 N.am    1  UNL1       -0.2418
      9 C          63.3144   84.8629   12.5202 C.2     1  UNL1        0.4055
     10 O          62.4076   84.3355   11.4480 O.2     1  UNL1       -0.2262
     11 C          64.3482   86.8695   13.8066 C.3     1  UNL1        0.1234
     12 C          63.8282   87.0636   15.2001 C.ar    1  UNL1       -0.0022
     13 C          63.5264   85.8726   16.0607 C.ar    1  UNL1       -0.0026
     14 C          63.0064   86.0667   17.4542 C.ar    1  UNL1       -0.0003
     15 C          62.7882   87.4517   17.9872 C.ar    1  UNL1       -0.0000
     16 C          63.0901   88.6428   17.1267 C.ar    1  UNL1       -0.0003
     17 C          63.6100   88.4487   15.7331 C.ar    1  UNL1       -0.0026
     18 O          64.0941   83.9112   13.3782 O.3     1  UNL1       -0.4289
     19 C          64.1565   82.4562   13.0187 C.3     1  UNL1        0.2447
     20 C          63.0044   81.5528   13.3454 C.ar    1  UNL1        0.0714
     21 C          62.8482   80.1280   12.9030 C.ar    1  UNL1        0.1053
     22 N          61.5535   79.6103   13.4560 N.ar    1  UNL1       -0.2350
     23 C          60.9096   80.7151   14.2401 C.ar    1  UNL1        0.1343
     24 S          61.8063   81.9156   14.1717 S.2     1  UNL1       -0.0652
     25 C          62.8575   91.1992   11.3101 C.3     1  UNL1        0.0459
     26 C          64.1975   91.5493   11.8860 C.ar    1  UNL1       -0.0205
     27 C          65.2201   92.2449   11.0373 C.ar    1  UNL1       -0.0042
     28 C          66.5602   92.5949   11.6133 C.ar    1  UNL1       -0.0003
     29 C          66.8776   92.2494   13.0380 C.ar    1  UNL1       -0.0000
     30 C          65.8550   91.5538   13.8868 C.ar    1  UNL1       -0.0003
     31 C          64.5150   91.2037   13.3108 C.ar    1  UNL1       -0.0042
     32 C          59.9880   89.2256    8.0515 C.3     1  UNL1        0.1511
     33 N          59.6835   91.3356    4.7042 N.am    1  UNL1       -0.2567
     34 C          58.6201   91.9595    3.8499 C.3     1  UNL1        0.1168
     35 C          59.3041   90.5925    5.9507 C.2     1  UNL1        0.3046
     36 O          57.8612   90.4733    6.3429 O.2     1  UNL1       -0.2526
     37 N          60.3675   89.9687    6.8050 N.am    1  UNL1       -0.2824
     38 H          61.3145   90.0469    6.5476 H       1  UNL1        0.1514
     39 C          61.1264   91.4549    4.3120 C.3     1  UNL1        0.1413
     40 C          62.7951   93.2704    1.3145 C.ar    1  UNL1        0.0875
     41 N          62.8450   92.2760    2.4365 N.ar    1  UNL1       -0.2453
     42 C          61.5159   92.2947    3.1317 C.ar    1  UNL1        0.0858
     43 C          60.6447   93.3006    2.4394 C.ar    1  UNL1        0.0530
     44 S          61.4353   93.9036    1.3163 S.2     1  UNL1       -0.0705
     45 C          63.5983   93.9617   -1.0576 C.3     1  UNL1        0.0069
     46 C          63.9095   93.5776    0.3586 C.3     1  UNL1        0.0465
     47 C          65.3351   93.5007    0.8188 C.3     1  UNL1        0.0069
     48 C          59.0639   88.0468    7.9700 C.3     1  UNL1        0.0463
     49 C          59.4680   86.7339    8.5724 C.3     1  UNL1        0.0745
     50 N          60.6474   85.9878    8.0225 N.3     1  UNL1       -0.2684
     51 C          61.9598   86.0197    8.7481 C.3     1  UNL1        0.1046
     52 C          63.1391   85.2736    8.1982 C.3     1  UNL1        0.1595
     53 O          63.0061   84.4956    6.9227 O.3     1  UNL1       -0.3508
     54 C          61.6937   84.4637    6.1970 C.3     1  UNL1        0.1595
     55 C          60.5144   85.2098    6.7469 C.3     1  UNL1        0.1046
@<TRIPOS>BOND
     1    45    46    1
     2    46    47    1
     3    46    40    1
     4    40    41   ar
     5    41    42   ar
     6    42    39    1
     7    39    33    1
     8    33    34    1
     9    33    35   am
    10    35    36    2
    11    35    37   am
    12    37    32    1
    13    32    48    1
    14    48    49    1
    15    49    50    1
    16    50    51    1
    17    51    52    1
    18    52    53    1
    19    53    54    1
    20    54    55    1
    21    32     1    1
    22     1     2    2
    23     1     3   am
    24     3     5    1
    25     5     6    1
    26     6     7    1
    27     7     8    1
    28     8    11    1
    29    11    12    1
    30    12    13   ar
    31    13    14   ar
    32    14    15   ar
    33    15    16   ar
    34    16    17   ar
    35     8     9   am
    36     9    10    2
    37     9    18    1
    38    18    19    1
    39    19    20    1
    40    20    21   ar
    41    21    22   ar
    42    22    23   ar
    43    23    24   ar
    44     5    25    1
    45    25    26    1
    46    26    27   ar
    47    27    28   ar
    48    28    29   ar
    49    29    30   ar
    50    30    31   ar
    51    42    43   ar
    52    43    44   ar
    53    44    40   ar
    54    55    50    1
    55    17    12   ar
    56    24    20   ar
    57    31    26   ar
    58    37    38    1
    59     3     4    1
@<TRIPOS>MOLECULE
*****
 55 59 0 0 0
SMALL
GASTEIGER

@<TRIPOS>ATOM
      1 C          62.5322   90.0489   11.2687 C.2     1  UNL1        0.2404
      2 O          61.0879   90.3771   11.0315 O.2     1  UNL1       -0.2733
      3 N          63.0217   88.6429   11.0857 N.am    1  UNL1       -0.3042
      4 H          63.9697   88.4275   11.2414 H       1  UNL1        0.1494
      5 C          62.0668   87.5650   10.6656 C.3     1  UNL1        0.0777
      6 C          61.8228   86.3878   11.5628 C.3     1  UNL1        0.0415
      7 C          62.2575   85.0170   11.1364 C.3     1  UNL1        0.0988
      8 N          63.3280   84.2976   11.9022 N.am    1  UNL1       -0.2418
      9 C          63.5755   82.8390   11.6549 C.2     1  UNL1        0.4055
     10 O          62.7526   82.0998   10.6418 O.2     1  UNL1       -0.2262
     11 C          64.1509   85.0368   12.9152 C.3     1  UNL1        0.1234
     12 C          63.6162   85.2573   14.2992 C.ar    1  UNL1       -0.0022
     13 C          62.4124   84.4952   14.7684 C.ar    1  UNL1       -0.0026
     14 C          61.8777   84.7157   16.1524 C.ar    1  UNL1       -0.0003
     15 C          62.5467   85.6983   17.0672 C.ar    1  UNL1       -0.0000
     16 C          63.7505   86.4605   16.5980 C.ar    1  UNL1       -0.0003
     17 C          64.2852   86.2400   15.2140 C.ar    1  UNL1       -0.0026
     18 O          64.6460   82.1196   12.4207 O.3     1  UNL1       -0.4289
     19 C          64.2769   81.2341   13.5740 C.3     1  UNL1        0.2447
     20 C          62.8689   80.7369   13.7170 C.ar    1  UNL1        0.0714
     21 C          62.3724   79.3735   13.3365 C.ar    1  UNL1        0.1053
     22 N          60.9069   79.3097   13.6501 N.ar    1  UNL1       -0.2350
     23 C          60.4977   80.6337   14.2243 C.ar    1  UNL1        0.1343
     24 S          61.7103   81.5157   14.2657 S.2     1  UNL1       -0.0652
     25 C          61.3561   87.6642    9.3485 C.3     1  UNL1        0.0459
     26 C          61.4639   86.5481    8.3522 C.ar    1  UNL1       -0.0205
     27 C          60.2484   86.0949    7.5991 C.ar    1  UNL1       -0.0042
     28 C          60.3562   84.9788    6.6028 C.ar    1  UNL1       -0.0003
     29 C          61.6796   84.3159    6.3595 C.ar    1  UNL1       -0.0000
     30 C          62.8951   84.7691    7.1125 C.ar    1  UNL1       -0.0003
     31 C          62.7873   85.8852    8.1089 C.ar    1  UNL1       -0.0042
     32 C          63.4871   91.1267   11.6887 C.3     1  UNL1        0.1511
     33 N          63.5506   90.6374   15.6265 N.am    1  UNL1       -0.2567
     34 C          63.1304   89.6248   16.6502 C.3     1  UNL1        0.1168
     35 C          63.3087   90.3757   14.1695 C.2     1  UNL1        0.3046
     36 O          62.6468   89.1014   13.7361 O.2     1  UNL1       -0.2526
     37 N          63.7289   91.3884   13.1458 N.am    1  UNL1       -0.2824
     38 H          64.1634   92.2248   13.4302 H       1  UNL1        0.1514
     39 C          64.2125   91.9117   16.0599 C.3     1  UNL1        0.1413
     40 C          67.8135   92.1707   14.6345 C.ar    1  UNL1        0.0875
     41 N          66.3790   91.7524   14.5023 N.ar    1  UNL1       -0.2453
     42 C          65.6648   92.1412   15.7628 C.ar    1  UNL1        0.0858
     43 C          66.6578   92.7998   16.6739 C.ar    1  UNL1        0.0530
     44 S          67.9858   92.8180   15.9766 S.2     1  UNL1       -0.0705
     45 C          70.3172   92.2711   13.9480 C.3     1  UNL1        0.0069
     46 C          68.8870   91.9758   13.6052 C.3     1  UNL1        0.0465
     47 C          68.5305   91.4858   12.2331 C.3     1  UNL1        0.0069
     48 C          64.2002   91.9429   10.6517 C.3     1  UNL1        0.0463
     49 C          65.6597   92.2498   10.8119 C.3     1  UNL1        0.0745
     50 N          66.1893   93.5989   10.4253 N.3     1  UNL1       -0.2684
     51 C          67.1096   93.7343    9.2486 C.3     1  UNL1        0.1046
     52 C          67.6392   95.0834    8.8620 C.3     1  UNL1        0.1595
     53 O          67.2485   96.2971    9.6521 O.3     1  UNL1       -0.3508
     54 C          66.3282   96.1617   10.8288 C.3     1  UNL1        0.1595
     55 C          65.7986   94.8126   11.2154 C.3     1  UNL1        0.1046
@<TRIPOS>BOND
     1    45    46    1
     2    46    47    1
     3    46    40    1
     4    40    41   ar
     5    41    42   ar
     6    42    39    1
     7    39    33    1
     8    33    34    1
     9    33    35   am
    10    35    36    2
    11    35    37   am
    12    37    32    1
    13    32    48    1
    14    48    49    1
    15    49    50    1
    16    50    51    1
    17    51    52    1
    18    52    53    1
    19    53    54    1
    20    54    55    1
    21    32     1    1
    22     1     2    2
    23     1     3   am
    24     3     5    1
    25     5     6    1
    26     6     7    1
    27     7     8    1
    28     8    11    1
    29    11    12    1
    30    12    13   ar
    31    13    14   ar
    32    14    15   ar
    33    15    16   ar
    34    16    17   ar
    35     8     9   am
    36     9    10    2
    37     9    18    1
    38    18    19    1
    39    19    20    1
    40    20    21   ar
    41    21    22   ar
    42    22    23   ar
    43    23    24   ar
    44     5    25    1
    45    25    26    1
    46    26    27   ar
    47    27    28   ar
    48    28    29   ar
    49    29    30   ar
    50    30    31   ar
    51    42    43   ar
    52    43    44   ar
    53    44    40   ar
    54    55    50    1
    55    17    12   ar
    56    24    20   ar
    57    31    26   ar
    58    37    38    1
    59     3     4    1
@<TRIPOS>MOLECULE
*****
 55 59 0 0 0
SMALL
GASTEIGER

@<TRIPOS>ATOM
      1 C          61.2923   89.2233   10.3715 C.2     1  UNL1        0.2404
      2 O          60.2376   88.3187   10.9366 O.2     1  UNL1       -0.2733
      3 N          61.2534   89.6067    8.9219 N.am    1  UNL1       -0.3042
      4 H          61.9457   90.2004    8.5510 H       1  UNL1        0.1494
      5 C          60.1598   89.0855    8.0373 C.3     1  UNL1        0.0777
      6 C          59.4799   90.0035    7.0652 C.3     1  UNL1        0.0415
      7 C          59.7869   89.9052    5.6003 C.3     1  UNL1        0.0988
      8 N          60.2536   91.1166    4.8488 N.am    1  UNL1       -0.2418
      9 C          59.2701   92.1761    4.4488 C.2     1  UNL1        0.4055
     10 O          57.8197   92.0242    4.8003 O.2     1  UNL1       -0.2262
     11 C          61.7039   91.2686    4.4974 C.3     1  UNL1        0.1234
     12 C          62.0978   91.7940    3.1488 C.ar    1  UNL1       -0.0022
     13 C          63.1291   92.8775    3.0379 C.ar    1  UNL1       -0.0026
     14 C          63.5229   93.4029    1.6893 C.ar    1  UNL1       -0.0003
     15 C          62.8855   92.8449    0.4515 C.ar    1  UNL1       -0.0000
     16 C          61.8541   91.7613    0.5623 C.ar    1  UNL1       -0.0003
     17 C          61.4603   91.2358    1.9109 C.ar    1  UNL1       -0.0026
     18 O          59.7368   93.3875    3.6974 O.3     1  UNL1       -0.4289
     19 C          59.3745   93.5591    2.2519 C.3     1  UNL1        0.2447
     20 C          59.9218   94.7190    1.4741 C.ar    1  UNL1        0.0714
     21 C          59.8583   94.8909   -0.0147 C.ar    1  UNL1        0.1053
     22 N          60.5260   96.1889   -0.3603 N.ar    1  UNL1       -0.2350
     23 C          61.0022   96.8192    0.9148 C.ar    1  UNL1        0.1343
     24 S          60.6288   95.9108    2.0485 S.2     1  UNL1       -0.0652
     25 C          59.7462   87.6463    8.1247 C.3     1  UNL1        0.0459
     26 C          60.7470   86.5609    7.8599 C.ar    1  UNL1       -0.0205
     27 C          61.9458   86.4128    8.7493 C.ar    1  UNL1       -0.0042
     28 C          62.9467   85.3273    8.4844 C.ar    1  UNL1       -0.0003
     29 C          62.7487   84.3900    7.3301 C.ar    1  UNL1       -0.0000
     30 C          61.5499   84.5382    6.4408 C.ar    1  UNL1       -0.0003
     31 C          60.5491   85.6236    6.7056 C.ar    1  UNL1       -0.0042
     32 C          62.3858   89.7444   11.2560 C.3     1  UNL1        0.1511
     33 N          63.6995   88.1890   14.6626 N.am    1  UNL1       -0.2567
     34 C          63.6440   88.4726   16.1345 C.3     1  UNL1        0.1168
     35 C          63.0149   89.1085   13.6953 C.2     1  UNL1        0.3046
     36 O          62.2749   90.3118   14.1997 O.2     1  UNL1       -0.2526
     37 N          63.0704   88.8249   12.2234 N.am    1  UNL1       -0.2824
     38 H          63.5561   88.0351   11.8923 H       1  UNL1        0.1514
     39 C          64.4395   86.9857   14.1581 C.3     1  UNL1        0.1413
     40 C          62.9427   83.4264   13.7629 C.ar    1  UNL1        0.0875
     41 N          63.5453   84.6671   13.1734 N.ar    1  UNL1       -0.2453
     42 C          63.8333   85.6205   14.2951 C.ar    1  UNL1        0.0858
     43 C          63.4087   84.9690   15.5777 C.ar    1  UNL1        0.0530
     44 S          62.8582   83.6129   15.2488 S.2     1  UNL1       -0.0705
     45 C          61.7479   81.1202   13.6995 C.3     1  UNL1        0.0069
     46 C          62.5019   82.2122   13.0002 C.3     1  UNL1        0.0465
     47 C          62.8152   82.0901   11.5384 C.3     1  UNL1        0.0069
     48 C          62.7949   91.1853   11.1732 C.3     1  UNL1        0.0463
     49 C          64.1797   91.5471   10.7244 C.3     1  UNL1        0.0745
     50 N          65.0404   92.4264   11.5824 N.3     1  UNL1       -0.2684
     51 C          65.3710   92.0128   12.9858 C.3     1  UNL1        0.1046
     52 C          66.2317   92.8921   13.8437 C.3     1  UNL1        0.1595
     53 O          66.7619   94.1849   13.2982 O.3     1  UNL1       -0.3508
     54 C          66.4313   94.5984   11.8948 C.3     1  UNL1        0.1595
     55 C          65.5706   93.7192   11.0369 C.3     1  UNL1        0.1046
@<TRIPOS>BOND
     1    45    46    1
     2    46    47    1
     3    46    40    1
     4    40    41   ar
     5    41    42   ar
     6    42    39    1
     7    39    33    1
     8    33    34    1
     9    33    35   am
    10    35    36    2
    11    35    37   am
    12    37    32    1
    13    32    48    1
    14    48    49    1
    15    49    50    1
    16    50    51    1
    17    51    52    1
    18    52    53    1
    19    53    54    1
    20    54    55    1
    21    32     1    1
    22     1     2    2
    23     1     3   am
    24     3     5    1
    25     5     6    1
    26     6     7    1
    27     7     8    1
    28     8    11    1
    29    11    12    1
    30    12    13   ar
    31    13    14   ar
    32    14    15   ar
    33    15    16   ar
    34    16    17   ar
    35     8     9   am
    36     9    10    2
    37     9    18    1
    38    18    19    1
    39    19    20    1
    40    20    21   ar
    41    21    22   ar
    42    22    23   ar
    43    23    24   ar
    44     5    25    1
    45    25    26    1
    46    26    27   ar
    47    27    28   ar
    48    28    29   ar
    49    29    30   ar
    50    30    31   ar
    51    42    43   ar
    52    43    44   ar
    53    44    40   ar
    54    55    50    1
    55    17    12   ar
    56    24    20   ar
    57    31    26   ar
    58    37    38    1
    59     3     4    1
@<TRIPOS>MOLECULE
*****
 55 59 0 0 0
SMALL
GASTEIGER

@<TRIPOS>ATOM
      1 C          62.0515   86.6218   11.0060 C.2     1  UNL1        0.2404
      2 O          60.7136   86.9205   11.6149 O.2     1  UNL1       -0.2733
      3 N          62.8418   87.7189   10.3567 N.am    1  UNL1       -0.3042
      4 H          63.7200   87.5227    9.9571 H       1  UNL1        0.1494
      5 C          62.2943   89.1148   10.3161 C.3     1  UNL1        0.0777
      6 C          63.2284   90.2880   10.3473 C.3     1  UNL1        0.0415
      7 C          63.1412   91.2867   11.4631 C.3     1  UNL1        0.0988
      8 N          64.2240   91.3500   12.4993 N.am    1  UNL1       -0.2418
      9 C          64.4222   90.2051   13.4478 C.2     1  UNL1        0.4055
     10 O          63.5376   88.9967   13.3602 O.2     1  UNL1       -0.2262
     11 C          65.1085   92.5582   12.5869 C.3     1  UNL1        0.1234
     12 C          65.9793   92.9361   11.4254 C.ar    1  UNL1       -0.0022
     13 C          67.0737   92.0135   10.9771 C.ar    1  UNL1       -0.0026
     14 C          67.9444   92.3914    9.8156 C.ar    1  UNL1       -0.0003
     15 C          67.7207   93.6919    9.1024 C.ar    1  UNL1       -0.0000
     16 C          66.6262   94.6145    9.5507 C.ar    1  UNL1       -0.0003
     17 C          65.7555   94.2367   10.7122 C.ar    1  UNL1       -0.0026
     18 O          65.5049   90.2683   14.4840 O.3     1  UNL1       -0.4289
     19 C          65.7484   91.5423   15.2375 C.3     1  UNL1        0.2447
     20 C          67.1030   92.1857   15.2051 C.ar    1  UNL1        0.0714
     21 C          68.2225   91.8371   14.2695 C.ar    1  UNL1        0.1053
     22 N          69.3874   92.7266   14.5888 N.ar    1  UNL1       -0.2350
     23 C          68.9878   93.6250   15.7217 C.ar    1  UNL1        0.1343
     24 S          67.5760   93.2907   16.1025 S.2     1  UNL1       -0.0652
     25 C          60.8127   89.3375   10.2445 C.3     1  UNL1        0.0459
     26 C          60.0679   89.0270    8.9800 C.ar    1  UNL1       -0.0205
     27 C          59.3260   87.7303    8.8456 C.ar    1  UNL1       -0.0042
     28 C          58.5813   87.4198    7.5811 C.ar    1  UNL1       -0.0003
     29 C          58.5784   88.4061    6.4510 C.ar    1  UNL1       -0.0000
     30 C          59.3204   89.7028    6.5853 C.ar    1  UNL1       -0.0003
     31 C          60.0651   90.0133    7.8498 C.ar    1  UNL1       -0.0042
     32 C          62.5991   85.2259   11.0465 C.3     1  UNL1        0.1511
     33 N          62.6254   82.0997   13.4911 N.am    1  UNL1       -0.2567
     34 C          62.9802   80.6425   13.4646 C.3     1  UNL1        0.1168
     35 C          62.7896   82.9342   12.2555 C.2     1  UNL1        0.3046
     36 O          63.3088   82.3116   10.9935 O.2     1  UNL1       -0.2526
     37 N          62.4348   84.3914   12.2821 N.am    1  UNL1       -0.2824
     38 H          62.0941   84.8000   13.1104 H       1  UNL1        0.1514
     39 C          62.1062   82.7223   14.7531 C.3     1  UNL1        0.1413
     40 C          63.1513   86.0090   16.5339 C.ar    1  UNL1        0.0875
     41 N          62.1316   84.9528   16.2260 N.ar    1  UNL1       -0.2453
     42 C          62.7671   83.9474   15.3120 C.ar    1  UNL1        0.0858
     43 C          64.1795   84.3822   15.0550 C.ar    1  UNL1        0.0530
     44 S          64.4170   85.6564   15.8102 S.2     1  UNL1       -0.0705
     45 C          62.6003   87.0253   18.8605 C.3     1  UNL1        0.0069
     46 C          62.9420   87.2074   17.4114 C.3     1  UNL1        0.0465
     47 C          63.0744   88.5879   16.8398 C.3     1  UNL1        0.0069
     48 C          63.3110   84.6645    9.8515 C.3     1  UNL1        0.0463
     49 C          63.3639   85.4481    8.5735 C.3     1  UNL1        0.0745
     50 N          62.5424   85.0169    7.3948 N.3     1  UNL1       -0.2684
     51 C          61.0449   85.0251    7.4810 C.3     1  UNL1        0.1046
     52 C          60.2235   84.5940    6.3023 C.3     1  UNL1        0.1595
     53 O          60.8995   84.1546    5.0375 O.3     1  UNL1       -0.3508
     54 C          62.3970   84.1464    4.9513 C.3     1  UNL1        0.1595
     55 C          63.2184   84.5775    6.1299 C.3     1  UNL1        0.1046
@<TRIPOS>BOND
     1    45    46    1
     2    46    47    1
     3    46    40    1
     4    40    41   ar
     5    41    42   ar
     6    42    39    1
     7    39    33    1
     8    33    34    1
     9    33    35   am
    10    35    36    2
    11    35    37   am
    12    37    32    1
    13    32    48    1
    14    48    49    1
    15    49    50    1
    16    50    51    1
    17    51    52    1
    18    52    53    1
    19    53    54    1
    20    54    55    1
    21    32     1    1
    22     1     2    2
    23     1     3   am
    24     3     5    1
    25     5     6    1
    26     6     7    1
    27     7     8    1
    28     8    11    1
    29    11    12    1
    30    12    13   ar
    31    13    14   ar
    32    14    15   ar
    33    15    16   ar
    34    16    17   ar
    35     8     9   am
    36     9    10    2
    37     9    18    1
    38    18    19    1
    39    19    20    1
    40    20    21   ar
    41    21    22   ar
    42    22    23   ar
    43    23    24   ar
    44     5    25    1
    45    25    26    1
    46    26    27   ar
    47    27    28   ar
    48    28    29   ar
    49    29    30   ar
    50    30    31   ar
    51    42    43   ar
    52    43    44   ar
    53    44    40   ar
    54    55    50    1
    55    17    12   ar
    56    24    20   ar
    57    31    26   ar
    58    37    38    1
    59     3     4    1
@<TRIPOS>MOLECULE
*****
 55 59 0 0 0
SMALL
GASTEIGER

@<TRIPOS>ATOM
      1 C          62.9109   90.2218   11.2063 C.2     1  UNL1        0.2404
      2 O          63.0866   89.8321    9.7685 O.2     1  UNL1       -0.2733
      3 N          61.8096   89.6097   12.0201 N.am    1  UNL1       -0.3042
      4 H          61.6943   89.8655   12.9638 H       1  UNL1        0.1494
      5 C          60.8838   88.6079   11.3961 C.3     1  UNL1        0.0777
      6 C          61.1617   87.1406   11.5366 C.3     1  UNL1        0.0415
      7 C          62.2712   86.5087   10.7494 C.3     1  UNL1        0.0988
      8 N          62.5655   85.0465   10.9088 N.am    1  UNL1       -0.2418
      9 C          63.2751   84.3010    9.8177 C.2     1  UNL1        0.4055
     10 O          63.6905   85.0176    8.5671 O.2     1  UNL1       -0.2262
     11 C          62.1501   84.3298   12.1593 C.3     1  UNL1        0.1234
     12 C          62.7458   84.7190   13.4798 C.ar    1  UNL1       -0.0022
     13 C          62.0888   84.2842   14.7562 C.ar    1  UNL1       -0.0026
     14 C          62.6845   84.6734   16.0767 C.ar    1  UNL1       -0.0003
     15 C          63.9371   85.4973   16.1208 C.ar    1  UNL1       -0.0000
     16 C          64.5942   85.9321   14.8444 C.ar    1  UNL1       -0.0003
     17 C          63.9985   85.5429   13.5239 C.ar    1  UNL1       -0.0026
     18 O          63.5694   82.8388    9.9771 O.3     1  UNL1       -0.4289
     19 C          64.3877   82.3608   11.1399 C.3     1  UNL1        0.2447
     20 C          63.7548   81.5153   12.2051 C.ar    1  UNL1        0.0714
     21 C          64.1537   81.4736   13.6506 C.ar    1  UNL1        0.1053
     22 N          63.2574   80.4955   14.3507 N.ar    1  UNL1       -0.2350
     23 C          62.3046   79.9328   13.3380 C.ar    1  UNL1        0.1343
     24 S          62.6121   80.5631   12.0120 S.2     1  UNL1       -0.0652
     25 C          59.6801   89.0734   10.6317 C.3     1  UNL1        0.0459
     26 C          59.5268   88.7149    9.1833 C.ar    1  UNL1       -0.0205
     27 C          59.6606   89.7746    8.1301 C.ar    1  UNL1       -0.0042
     28 C          59.5073   89.4161    6.6816 C.ar    1  UNL1       -0.0003
     29 C          59.2202   87.9979    6.2864 C.ar    1  UNL1       -0.0000
     30 C          59.0864   86.9382    7.3395 C.ar    1  UNL1       -0.0003
     31 C          59.2397   87.2966    8.7879 C.ar    1  UNL1       -0.0042
     32 C          63.8367   91.2236   11.8304 C.3     1  UNL1        0.1511
     33 N          63.6982   90.1950   15.6609 N.am    1  UNL1       -0.2567
     34 C          63.2968   89.0229   16.5064 C.3     1  UNL1        0.1168
     35 C          63.5667   90.1233   14.1684 C.2     1  UNL1        0.3046
     36 O          63.0338   88.8793   13.5214 O.2     1  UNL1       -0.2526
     37 N          63.9681   91.2954   13.3229 N.am    1  UNL1       -0.2824
     38 H          64.3179   92.1118   13.7475 H       1  UNL1        0.1514
     39 C          64.2311   91.4390   16.3079 C.3     1  UNL1        0.1413
     40 C          67.7031   92.2638   14.7813 C.ar    1  UNL1        0.0875
     41 N          66.4469   91.4446   14.8127 N.ar    1  UNL1       -0.2453
     42 C          65.5810   91.9663   15.9210 C.ar    1  UNL1        0.0858
     43 C          66.3022   93.1077   16.5745 C.ar    1  UNL1        0.0530
     44 S          67.6137   93.2916   15.8701 S.2     1  UNL1       -0.0705
     45 C          70.2475   92.3928   14.2719 C.3     1  UNL1        0.0069
     46 C          68.8478   92.0862   13.8283 C.3     1  UNL1        0.0465
     47 C          68.5928   91.6020   12.4316 C.3     1  UNL1        0.0069
     48 C          64.6309   92.1536   10.9619 C.3     1  UNL1        0.0463
     49 C          65.5751   93.1386   11.5849 C.3     1  UNL1        0.0745
     50 N          66.2210   94.1963   10.7396 N.3     1  UNL1       -0.2684
     51 C          66.0950   95.6415   11.1207 C.3     1  UNL1        0.1046
     52 C          66.7408   96.6990   10.2754 C.3     1  UNL1        0.1595
     53 O          67.5128   96.3113    9.0492 O.3     1  UNL1       -0.3508
     54 C          67.6389   94.8660    8.6681 C.3     1  UNL1        0.1595
     55 C          66.9930   93.8085    9.5134 C.3     1  UNL1        0.1046
@<TRIPOS>BOND
     1    45    46    1
     2    46    47    1
     3    46    40    1
     4    40    41   ar
     5    41    42   ar
     6    42    39    1
     7    39    33    1
     8    33    34    1
     9    33    35   am
    10    35    36    2
    11    35    37   am
    12    37    32    1
    13    32    48    1
    14    48    49    1
    15    49    50    1
    16    50    51    1
    17    51    52    1
    18    52    53    1
    19    53    54    1
    20    54    55    1
    21    32     1    1
    22     1     2    2
    23     1     3   am
    24     3     5    1
    25     5     6    1
    26     6     7    1
    27     7     8    1
    28     8    11    1
    29    11    12    1
    30    12    13   ar
    31    13    14   ar
    32    14    15   ar
    33    15    16   ar
    34    16    17   ar
    35     8     9   am
    36     9    10    2
    37     9    18    1
    38    18    19    1
    39    19    20    1
    40    20    21   ar
    41    21    22   ar
    42    22    23   ar
    43    23    24   ar
    44     5    25    1
    45    25    26    1
    46    26    27   ar
    47    27    28   ar
    48    28    29   ar
    49    29    30   ar
    50    30    31   ar
    51    42    43   ar
    52    43    44   ar
    53    44    40   ar
    54    55    50    1
    55    17    12   ar
    56    24    20   ar
    57    31    26   ar
    58    37    38    1
    59     3     4    1
@<TRIPOS>MOLECULE
*****
 55 59 0 0 0
SMALL
GASTEIGER

@<TRIPOS>ATOM
      1 C          62.2433   89.8214   11.7246 C.2     1  UNL1        0.2404
      2 O          60.7844   90.1689   11.6946 O.2     1  UNL1       -0.2733
      3 N          62.6843   88.4128   11.4577 N.am    1  UNL1       -0.3042
      4 H          63.6418   88.1846   11.4774 H       1  UNL1        0.1494
      5 C          61.6665   87.3516   11.1607 C.3     1  UNL1        0.0777
      6 C          62.0503   85.9033   11.2318 C.3     1  UNL1        0.0415
      7 C          63.4890   85.5164   11.4058 C.3     1  UNL1        0.0988
      8 N          63.8638   84.0723   11.5614 N.am    1  UNL1       -0.2418
      9 C          63.8928   83.1716   10.3623 C.2     1  UNL1        0.4055
     10 O          63.5470   83.7150    9.0076 O.2     1  UNL1       -0.2262
     11 C          64.2096   83.5290   12.9161 C.3     1  UNL1        0.1234
     12 C          63.9045   84.3313   14.1462 C.ar    1  UNL1       -0.0022
     13 C          64.8419   85.4168   14.5853 C.ar    1  UNL1       -0.0026
     14 C          64.5368   86.2191   15.8154 C.ar    1  UNL1       -0.0003
     15 C          63.2943   85.9358   16.6065 C.ar    1  UNL1       -0.0000
     16 C          62.3567   84.8502   16.1675 C.ar    1  UNL1       -0.0003
     17 C          62.6619   84.0480   14.9373 C.ar    1  UNL1       -0.0026
     18 O          64.2676   81.7276   10.5179 O.3     1  UNL1       -0.4289
     19 C          63.2245   80.7188   10.8979 C.3     1  UNL1        0.2447
     20 C          62.6816   80.6916   12.2960 C.ar    1  UNL1        0.0714
     21 C          63.3262   80.0327   13.4795 C.ar    1  UNL1        0.1053
     22 N          62.4417   80.2524   14.6709 N.ar    1  UNL1       -0.2350
     23 C          61.2506   81.0470   14.2239 C.ar    1  UNL1        0.1343
     24 S          61.3989   81.3184   12.7561 S.2     1  UNL1       -0.0652
     25 C          60.2649   87.7389   10.7927 C.3     1  UNL1        0.0459
     26 C          59.8974   87.9458    9.3532 C.ar    1  UNL1       -0.0205
     27 C          59.3562   86.8035    8.5456 C.ar    1  UNL1       -0.0042
     28 C          58.9887   87.0104    7.1061 C.ar    1  UNL1       -0.0003
     29 C          59.1625   88.3597    6.4742 C.ar    1  UNL1       -0.0000
     30 C          59.7038   89.5020    7.2818 C.ar    1  UNL1       -0.0003
     31 C          60.0712   89.2951    8.7212 C.ar    1  UNL1       -0.0042
     32 C          63.2611   90.8824   12.0215 C.3     1  UNL1        0.1511
     33 N          63.6598   90.6326   15.9622 N.am    1  UNL1       -0.2567
     34 C          63.4611   89.6308   17.0607 C.3     1  UNL1        0.1168
     35 C          63.3611   90.2566   14.5411 C.2     1  UNL1        0.3046
     36 O          62.8637   88.8787   14.2186 O.2     1  UNL1       -0.2526
     37 N          63.5598   91.2584   13.4426 N.am    1  UNL1       -0.2824
     38 H          63.8863   92.1627   13.6542 H       1  UNL1        0.1514
     39 C          64.1573   92.0105   16.2847 C.3     1  UNL1        0.1413
     40 C          67.8177   93.1642   15.7051 C.ar    1  UNL1        0.0875
     41 N          66.7071   92.7394   16.6196 N.ar    1  UNL1       -0.2453
     42 C          65.4956   92.4620   15.7797 C.ar    1  UNL1        0.0858
     43 C          65.8574   92.7153   14.3462 C.ar    1  UNL1        0.0530
     44 S          67.2925   93.1494   14.3001 S.2     1  UNL1       -0.0705
     45 C          70.1842   92.4713   16.5230 C.3     1  UNL1        0.0069
     46 C          69.2091   93.5383   16.1224 C.3     1  UNL1        0.0465
     47 C          69.6253   94.9793   16.1391 C.3     1  UNL1        0.0069
     48 C          63.9803   91.5674   10.8974 C.3     1  UNL1        0.0463
     49 C          64.6580   92.8846   11.1329 C.3     1  UNL1        0.0745
     50 N          66.0205   93.1402   10.5597 N.3     1  UNL1       -0.2684
     51 C          67.0722   92.0725   10.6210 C.3     1  UNL1        0.1046
     52 C          68.4346   92.3281   10.0478 C.3     1  UNL1        0.1595
     53 O          68.7452   93.6514    9.4133 O.3     1  UNL1       -0.3508
     54 C          67.6934   94.7191    9.3521 C.3     1  UNL1        0.1595
     55 C          66.3311   94.4635    9.9253 C.3     1  UNL1        0.1046
@<TRIPOS>BOND
     1    45    46    1
     2    46    47    1
     3    46    40    1
     4    40    41   ar
     5    41    42   ar
     6    42    39    1
     7    39    33    1
     8    33    34    1
     9    33    35   am
    10    35    36    2
    11    35    37   am
    12    37    32    1
    13    32    48    1
    14    48    49    1
    15    49    50    1
    16    50    51    1
    17    51    52    1
    18    52    53    1
    19    53    54    1
    20    54    55    1
    21    32     1    1
    22     1     2    2
    23     1     3   am
    24     3     5    1
    25     5     6    1
    26     6     7    1
    27     7     8    1
    28     8    11    1
    29    11    12    1
    30    12    13   ar
    31    13    14   ar
    32    14    15   ar
    33    15    16   ar
    34    16    17   ar
    35     8     9   am
    36     9    10    2
    37     9    18    1
    38    18    19    1
    39    19    20    1
    40    20    21   ar
    41    21    22   ar
    42    22    23   ar
    43    23    24   ar
    44     5    25    1
    45    25    26    1
    46    26    27   ar
    47    27    28   ar
    48    28    29   ar
    49    29    30   ar
    50    30    31   ar
    51    42    43   ar
    52    43    44   ar
    53    44    40   ar
    54    55    50    1
    55    17    12   ar
    56    24    20   ar
    57    31    26   ar
    58    37    38    1
    59     3     4    1
@<TRIPOS>MOLECULE
*****
 55 59 0 0 0
SMALL
GASTEIGER

@<TRIPOS>ATOM
      1 C          62.0971   87.5310   11.5653 C.2     1  UNL1        0.2404
      2 O          60.6514   87.6081   11.9577 O.2     1  UNL1       -0.2733
      3 N          62.7430   88.6814   10.8516 N.am    1  UNL1       -0.3042
      4 H          63.6918   88.6307   10.5941 H       1  UNL1        0.1494
      5 C          61.9431   89.9090   10.5303 C.3     1  UNL1        0.0777
      6 C          62.6207   91.2445   10.4446 C.3     1  UNL1        0.0415
      7 C          64.0945   91.3556   10.7009 C.3     1  UNL1        0.0988
      8 N          64.5895   91.9420   11.9897 N.am    1  UNL1       -0.2418
      9 C          64.0877   91.4078   13.2985 C.2     1  UNL1        0.4055
     10 O          63.0908   90.2871   13.3184 O.2     1  UNL1       -0.2262
     11 C          65.5863   93.0627   11.9698 C.3     1  UNL1        0.1234
     12 C          66.5001   93.2328   10.7926 C.ar    1  UNL1       -0.0022
     13 C          66.3824   94.4481    9.9212 C.ar    1  UNL1       -0.0026
     14 C          67.2962   94.6182    8.7439 C.ar    1  UNL1       -0.0003
     15 C          68.3277   93.5731    8.4380 C.ar    1  UNL1       -0.0000
     16 C          68.4455   92.3578    9.3094 C.ar    1  UNL1       -0.0003
     17 C          67.5317   92.1877   10.4866 C.ar    1  UNL1       -0.0026
     18 O          64.5827   91.9943   14.5873 O.3     1  UNL1       -0.4289
     19 C          65.7730   91.3948   15.2758 C.3     1  UNL1        0.2447
     20 C          67.1106   92.0672   15.1827 C.ar    1  UNL1        0.0714
     21 C          68.1469   91.8261   14.1253 C.ar    1  UNL1        0.1053
     22 N          69.3236   92.7086   14.4198 N.ar    1  UNL1       -0.2350
     23 C          69.0145   93.4951   15.6591 C.ar    1  UNL1        0.1343
     24 S          67.6468   93.0986   16.1306 S.2     1  UNL1       -0.0652
     25 C          60.4657   89.8012   10.2947 C.3     1  UNL1        0.0459
     26 C          59.9500   89.0888    9.0796 C.ar    1  UNL1       -0.0205
     27 C          59.5078   87.6590    9.1797 C.ar    1  UNL1       -0.0042
     28 C          58.9921   86.9466    7.9644 C.ar    1  UNL1       -0.0003
     29 C          58.9187   87.6641    6.6492 C.ar    1  UNL1       -0.0000
     30 C          59.3610   89.0939    6.5492 C.ar    1  UNL1       -0.0003
     31 C          59.8766   89.8063    7.7643 C.ar    1  UNL1       -0.0042
     32 C          62.8970   86.3034   11.8865 C.3     1  UNL1        0.1511
     33 N          62.9559   84.4302    8.3883 N.am    1  UNL1       -0.2567
     34 C          62.7097   84.7271    6.9388 C.3     1  UNL1        0.1168
     35 C          62.8034   85.5153    9.4127 C.2     1  UNL1        0.3046
     36 O          62.4046   86.8973    8.9875 O.2     1  UNL1       -0.2526
     37 N          63.0496   85.2183   10.8622 N.am    1  UNL1       -0.2824
     38 H          63.3113   84.3112   11.1413 H       1  UNL1        0.1514
     39 C          63.3548   83.0481    8.8135 C.3     1  UNL1        0.1413
     40 C          62.9547   82.1994   12.5799 C.ar    1  UNL1        0.0875
     41 N          62.3631   82.4968   11.2339 N.ar    1  UNL1       -0.2453
     42 C          63.4913   82.7220   10.2713 C.ar    1  UNL1        0.0858
     43 C          64.7801   82.5637   11.0224 C.ar    1  UNL1        0.0530
     44 S          64.4484   82.2408   12.4492 S.2     1  UNL1       -0.0705
     45 C          62.2742   82.8525   15.0006 C.3     1  UNL1        0.0069
     46 C          62.1872   81.9112   13.8360 C.3     1  UNL1        0.0465
     47 C          61.3327   80.6818   13.9275 C.3     1  UNL1        0.0069
     48 C          63.5444   86.1609   13.2322 C.3     1  UNL1        0.0463
     49 C          63.9033   87.3826   14.0250 C.3     1  UNL1        0.0745
     50 N          63.5602   87.4580   15.4833 N.3     1  UNL1       -0.2684
     51 C          63.3981   88.7930   16.1476 C.3     1  UNL1        0.1046
     52 C          63.0550   88.8683   17.6059 C.3     1  UNL1        0.1595
     53 O          62.8741   87.6085   18.3998 O.3     1  UNL1       -0.3508
     54 C          63.0363   86.2735   17.7355 C.3     1  UNL1        0.1595
     55 C          63.3794   86.1982   16.2773 C.3     1  UNL1        0.1046
@<TRIPOS>BOND
     1    45    46    1
     2    46    47    1
     3    46    40    1
     4    40    41   ar
     5    41    42   ar
     6    42    39    1
     7    39    33    1
     8    33    34    1
     9    33    35   am
    10    35    36    2
    11    35    37   am
    12    37    32    1
    13    32    48    1
    14    48    49    1
    15    49    50    1
    16    50    51    1
    17    51    52    1
    18    52    53    1
    19    53    54    1
    20    54    55    1
    21    32     1    1
    22     1     2    2
    23     1     3   am
    24     3     5    1
    25     5     6    1
    26     6     7    1
    27     7     8    1
    28     8    11    1
    29    11    12    1
    30    12    13   ar
    31    13    14   ar
    32    14    15   ar
    33    15    16   ar
    34    16    17   ar
    35     8     9   am
    36     9    10    2
    37     9    18    1
    38    18    19    1
    39    19    20    1
    40    20    21   ar
    41    21    22   ar
    42    22    23   ar
    43    23    24   ar
    44     5    25    1
    45    25    26    1
    46    26    27   ar
    47    27    28   ar
    48    28    29   ar
    49    29    30   ar
    50    30    31   ar
    51    42    43   ar
    52    43    44   ar
    53    44    40   ar
    54    55    50    1
    55    17    12   ar
    56    24    20   ar
    57    31    26   ar
    58    37    38    1
    59     3     4    1
@<TRIPOS>MOLECULE
*****
 55 59 0 0 0
SMALL
GASTEIGER

@<TRIPOS>ATOM
      1 C          61.7755   87.4716   11.2766 C.2     1  UNL1        0.2404
      2 O          60.4549   87.7971   11.9091 O.2     1  UNL1       -0.2733
      3 N          62.5478   88.5398   10.5607 N.am    1  UNL1       -0.3042
      4 H          63.4146   88.3261   10.1456 H       1  UNL1        0.1494
      5 C          61.9995   89.9335   10.4773 C.3     1  UNL1        0.0777
      6 C          62.8943   91.1084   10.7398 C.3     1  UNL1        0.0415
      7 C          64.2255   90.9046   11.4003 C.3     1  UNL1        0.0988
      8 N          64.6290   91.7696   12.5574 N.am    1  UNL1       -0.2418
      9 C          64.2337   91.3877   13.9530 C.2     1  UNL1        0.4055
     10 O          63.4348   90.1406   14.1916 O.2     1  UNL1       -0.2262
     11 C          65.4278   93.0166   12.3189 C.3     1  UNL1        0.1234
     12 C          66.3653   93.0947   11.1506 C.ar    1  UNL1       -0.0022
     13 C          66.2468   94.2217   10.1679 C.ar    1  UNL1       -0.0026
     14 C          67.1844   94.2999    8.9997 C.ar    1  UNL1       -0.0003
     15 C          68.2405   93.2510    8.8141 C.ar    1  UNL1       -0.0000
     16 C          68.3591   92.1239    9.7969 C.ar    1  UNL1       -0.0003
     17 C          67.4215   92.0458   10.9651 C.ar    1  UNL1       -0.0026
     18 O          64.6371   92.2527   15.1101 O.3     1  UNL1       -0.4289
     19 C          65.8323   91.8865   15.9394 C.3     1  UNL1        0.2447
     20 C          67.2018   92.3307   15.5184 C.ar    1  UNL1        0.0714
     21 C          67.9755   91.8092   14.3438 C.ar    1  UNL1        0.1053
     22 N          69.2899   92.5306   14.2976 N.ar    1  UNL1       -0.2350
     23 C          69.3285   93.4977   15.4435 C.ar    1  UNL1        0.1343
     24 S          68.0380   93.3742   16.1980 S.2     1  UNL1       -0.0652
     25 C          60.5564   90.1523   10.1315 C.3     1  UNL1        0.0459
     26 C          59.9605   89.4719    8.9349 C.ar    1  UNL1       -0.0205
     27 C          59.3779   88.0961    9.0671 C.ar    1  UNL1       -0.0042
     28 C          58.7820   87.4157    7.8704 C.ar    1  UNL1       -0.0003
     29 C          58.7688   88.1112    6.5415 C.ar    1  UNL1       -0.0000
     30 C          59.3514   89.4871    6.4092 C.ar    1  UNL1       -0.0003
     31 C          59.9473   90.1674    7.6059 C.ar    1  UNL1       -0.0042
     32 C          62.3239   86.0779   11.3600 C.3     1  UNL1        0.1511
     33 N          63.1949   85.1396   15.1164 N.am    1  UNL1       -0.2567
     34 C          64.0411   85.6489   16.2453 C.3     1  UNL1        0.1168
     35 C          63.1825   85.8634   13.8027 C.2     1  UNL1        0.3046
     36 O          64.0164   87.0964   13.6178 O.2     1  UNL1       -0.2526
     37 N          62.3362   85.3542   12.6738 N.am    1  UNL1       -0.2824
     38 H          61.7889   84.5449   12.7951 H       1  UNL1        0.1514
     39 C          62.3610   83.9066   15.3013 C.3     1  UNL1        0.1413
     40 C          62.8578   81.5678   12.2438 C.ar    1  UNL1        0.0875
     41 N          63.0345   82.8947   12.9206 N.ar    1  UNL1       -0.2453
     42 C          62.4127   82.8065   14.2829 C.ar    1  UNL1        0.0858
     43 C          61.8516   81.4252   14.4478 C.ar    1  UNL1        0.0530
     44 S          62.1267   80.6596   13.1876 S.2     1  UNL1       -0.0705
     45 C          64.2188   82.1541   10.1099 C.3     1  UNL1        0.0069
     46 C          63.3293   81.2116   10.8651 C.3     1  UNL1        0.0465
     47 C          62.9113   79.9129   10.2416 C.3     1  UNL1        0.0069
     48 C          62.8599   85.4080   10.1295 C.3     1  UNL1        0.0463
     49 C          62.7817   86.1031    8.8027 C.3     1  UNL1        0.0745
     50 N          62.2303   85.3811    7.6090 N.3     1  UNL1       -0.2684
     51 C          60.7485   85.2050    7.4576 C.3     1  UNL1        0.1046
     52 C          60.1972   84.4831    6.2639 C.3     1  UNL1        0.1595
     53 O          61.1277   83.9372    5.2218 O.3     1  UNL1       -0.3508
     54 C          62.6096   84.1133    5.3732 C.3     1  UNL1        0.1595
     55 C          63.1609   84.8353    6.5668 C.3     1  UNL1        0.1046
@<TRIPOS>BOND
     1    45    46    1
     2    46    47    1
     3    46    40    1
     4    40    41   ar
     5    41    42   ar
     6    42    39    1
     7    39    33    1
     8    33    34    1
     9    33    35   am
    10    35    36    2
    11    35    37   am
    12    37    32    1
    13    32    48    1
    14    48    49    1
    15    49    50    1
    16    50    51    1
    17    51    52    1
    18    52    53    1
    19    53    54    1
    20    54    55    1
    21    32     1    1
    22     1     2    2
    23     1     3   am
    24     3     5    1
    25     5     6    1
    26     6     7    1
    27     7     8    1
    28     8    11    1
    29    11    12    1
    30    12    13   ar
    31    13    14   ar
    32    14    15   ar
    33    15    16   ar
    34    16    17   ar
    35     8     9   am
    36     9    10    2
    37     9    18    1
    38    18    19    1
    39    19    20    1
    40    20    21   ar
    41    21    22   ar
    42    22    23   ar
    43    23    24   ar
    44     5    25    1
    45    25    26    1
    46    26    27   ar
    47    27    28   ar
    48    28    29   ar
    49    29    30   ar
    50    30    31   ar
    51    42    43   ar
    52    43    44   ar
    53    44    40   ar
    54    55    50    1
    55    17    12   ar
    56    24    20   ar
    57    31    26   ar
    58    37    38    1
    59     3     4    1
@<TRIPOS>MOLECULE
*****
 55 59 0 0 0
SMALL
GASTEIGER

@<TRIPOS>ATOM
      1 C          61.1421   87.4133    9.0215 C.2     1  UNL1        0.2404
      2 O          60.0444   86.4547    8.6662 O.2     1  UNL1       -0.2733
      3 N          62.5216   86.9001    9.3105 N.am    1  UNL1       -0.3042
      4 H          63.2421   87.5293    9.5436 H       1  UNL1        0.1494
      5 C          62.8035   85.4283    9.2442 C.3     1  UNL1        0.0777
      6 C          62.4047   84.5363   10.3822 C.3     1  UNL1        0.0415
      7 C          62.3437   85.0828   11.7777 C.3     1  UNL1        0.0988
      8 N          63.4968   84.8771   12.7148 N.am    1  UNL1       -0.2418
      9 C          64.0666   86.0413   13.4697 C.2     1  UNL1        0.4055
     10 O          63.4835   87.4113   13.2875 O.2     1  UNL1       -0.2262
     11 C          64.0799   83.5072   12.8971 C.3     1  UNL1        0.1234
     12 C          63.1765   82.3318   13.1254 C.ar    1  UNL1       -0.0022
     13 C          62.0797   82.4157   14.1451 C.ar    1  UNL1       -0.0026
     14 C          61.1763   81.2403   14.3734 C.ar    1  UNL1       -0.0003
     15 C          61.3697   79.9809   13.5819 C.ar    1  UNL1       -0.0000
     16 C          62.4665   79.8969   12.5621 C.ar    1  UNL1       -0.0003
     17 C          63.3700   81.0723   12.3339 C.ar    1  UNL1       -0.0026
     18 O          65.2197   85.8356   14.4068 O.3     1  UNL1       -0.4289
     19 C          64.9686   85.6313   15.8715 C.3     1  UNL1        0.2447
     20 C          63.6384   85.9943   16.4621 C.ar    1  UNL1        0.0714
     21 C          62.4226   85.1165   16.5027 C.ar    1  UNL1        0.1053
     22 N          61.3232   85.8785   17.1815 N.ar    1  UNL1       -0.2350
     23 C          61.8595   87.2271   17.5605 C.ar    1  UNL1        0.1343
     24 S          63.2903   87.2987   17.1158 S.2     1  UNL1       -0.0652
     25 C          63.4843   84.8486    8.0398 C.3     1  UNL1        0.0459
     26 C          62.7032   84.6012    6.7834 C.ar    1  UNL1       -0.0205
     27 C          61.2577   84.2087    6.8639 C.ar    1  UNL1       -0.0042
     28 C          60.4766   83.9613    5.6073 C.ar    1  UNL1       -0.0003
     29 C          61.1411   84.1065    4.2704 C.ar    1  UNL1       -0.0000
     30 C          62.5865   84.4990    4.1899 C.ar    1  UNL1       -0.0003
     31 C          63.3676   84.7464    5.4463 C.ar    1  UNL1       -0.0042
     32 C          60.8603   88.8851    9.0878 C.3     1  UNL1        0.1511
     33 N          62.7007   90.5757   12.1707 N.am    1  UNL1       -0.2567
     34 C          62.7430   90.4647   13.6660 C.3     1  UNL1        0.1168
     35 C          61.8016   89.6749   11.3769 C.2     1  UNL1        0.3046
     36 O          60.9447   88.6631   12.0783 O.2     1  UNL1       -0.2526
     37 N          61.7594   89.7859    9.8816 N.am    1  UNL1       -0.2824
     38 H          62.3218   90.4499    9.4212 H       1  UNL1        0.1514
     39 C          63.5576   91.5875   11.4693 C.3     1  UNL1        0.1413
     40 C          66.6350   92.4913   13.6552 C.ar    1  UNL1        0.0875
     41 N          65.2134   92.0322   13.5201 N.ar    1  UNL1       -0.2453
     42 C          64.8764   91.9913   12.0590 C.ar    1  UNL1        0.0858
     43 C          66.0897   92.4251   11.2911 C.ar    1  UNL1        0.0530
     44 S          67.1766   92.7341   12.2776 S.2     1  UNL1       -0.0705
     45 C          68.8807   92.7668   14.9322 C.3     1  UNL1        0.0069
     46 C          67.3836   92.6753   14.9420 C.3     1  UNL1        0.0465
     47 C          66.6350   92.7679   16.2385 C.3     1  UNL1        0.0069
     48 C          59.6793   89.4561    8.3603 C.3     1  UNL1        0.0463
     49 C          59.4626   89.1325    6.9117 C.3     1  UNL1        0.0745
     50 N          59.1618   90.2304    5.9348 N.3     1  UNL1       -0.2684
     51 C          60.2818   90.9210    5.2146 C.3     1  UNL1        0.1046
     52 C          59.9810   92.0188    4.2377 C.3     1  UNL1        0.1595
     53 O          58.5604   92.4260    3.9811 O.3     1  UNL1       -0.3508
     54 C          57.4404   91.7354    4.7013 C.3     1  UNL1        0.1595
     55 C          57.7412   90.6376    5.6782 C.3     1  UNL1        0.1046
@<TRIPOS>BOND
     1    45    46    1
     2    46    47    1
     3    46    40    1
     4    40    41   ar
     5    41    42   ar
     6    42    39    1
     7    39    33    1
     8    33    34    1
     9    33    35   am
    10    35    36    2
    11    35    37   am
    12    37    32    1
    13    32    48    1
    14    48    49    1
    15    49    50    1
    16    50    51    1
    17    51    52    1
    18    52    53    1
    19    53    54    1
    20    54    55    1
    21    32     1    1
    22     1     2    2
    23     1     3   am
    24     3     5    1
    25     5     6    1
    26     6     7    1
    27     7     8    1
    28     8    11    1
    29    11    12    1
    30    12    13   ar
    31    13    14   ar
    32    14    15   ar
    33    15    16   ar
    34    16    17   ar
    35     8     9   am
    36     9    10    2
    37     9    18    1
    38    18    19    1
    39    19    20    1
    40    20    21   ar
    41    21    22   ar
    42    22    23   ar
    43    23    24   ar
    44     5    25    1
    45    25    26    1
    46    26    27   ar
    47    27    28   ar
    48    28    29   ar
    49    29    30   ar
    50    30    31   ar
    51    42    43   ar
    52    43    44   ar
    53    44    40   ar
    54    55    50    1
    55    17    12   ar
    56    24    20   ar
    57    31    26   ar
    58    37    38    1
    59     3     4    1
