@<TRIPOS>MOLECULE
*****
 24 26 0 0 0
SMALL
GASTEIGER

@<TRIPOS>ATOM
      1 C          64.3258   89.7826   14.9912 C.ar    1  UNL1        0.0192
      2 C          63.5583   90.0064   16.2604 C.ar    1  UNL1        0.0028
      3 C          63.0107   88.8360   17.0220 C.ar    1  UNL1        0.0173
      4 C          63.2305   87.4417   16.5145 C.ar    1  UNL1        0.0888
      5 N          63.9980   87.2179   15.2454 N.ar    1  UNL1       -0.2457
      6 C          64.5457   88.3883   14.4837 C.ar    1  UNL1        0.0985
      7 C          65.9688   93.2940   12.7063 C.ar    1  UNL1        0.1660
      8 C          65.0198   92.3429   12.0394 C.ar    1  UNL1        0.0392
      9 C          64.4721   91.1725   12.8011 C.ar    1  UNL1        0.0033
     10 C          64.8735   90.9531   14.2296 C.ar    1  UNL1        0.0039
     11 C          65.8225   91.9041   14.8964 C.ar    1  UNL1        0.0328
     12 C          66.3702   93.0746   14.1348 C.ar    1  UNL1        0.1738
     13 F          67.3192   94.0257   14.8017 F       1  UNL1       -0.2010
     14 C          66.2995   94.5635   10.4637 C.3     1  UNL1        0.2526
     15 O          66.5164   94.4644   11.9446 O.3     1  UNL1       -0.4692
     16 C          62.6829   86.2712   17.2762 C.3     1  UNL1        0.1873
     17 O          61.8591   85.2358   16.5697 O.3     1  UNL1       -0.3497
     18 C          62.5088   84.2952   15.5984 C.3     1  UNL1        0.1197
     19 C          62.0123   83.3287   14.5642 C.3     1  UNL1        0.0548
     20 C          63.4274   82.9651   14.2249 C.3     1  UNL1        0.1179
     21 C          63.9238   83.9315   15.2590 C.3     1  UNL1        0.0548
     22 N          64.0771   82.0245   13.2536 N.2     1  UNL1       -0.2240
     23 C          64.1821   82.3974   11.8044 C.1     1  UNL1        0.0364
     24 S          64.2871   82.7702   10.3553 S.2     1  UNL1        0.0203
@<TRIPOS>BOND
     1    14    15    1
     2    15     7    1
     3     7     8   ar
     4     8     9   ar
     5     9    10   ar
     6    10     1    1
     7     1     2   ar
     8     2     3   ar
     9     3     4   ar
    10     4    16    1
    11    16    17    1
    12    18    17    1
    13    18    19    1
    14    19    20    1
    15    20    22    1
    16    22    23    2
    17    23    24    2
    18    20    21    1
    19     4     5   ar
    20     5     6   ar
    21    10    11   ar
    22    11    12   ar
    23    12    13    1
    24    12     7   ar
    25     6     1   ar
    26    21    18    1
@<TRIPOS>MOLECULE
*****
 24 26 0 0 0
SMALL
GASTEIGER

@<TRIPOS>ATOM
      1 C          63.6097   90.5429   12.0468 C.ar    1  UNL1        0.0192
      2 C          63.1144   91.0033   10.7079 C.ar    1  UNL1        0.0028
      3 C          62.1084   90.1819    9.9573 C.ar    1  UNL1        0.0173
      4 C          61.5977   88.9002   10.5456 C.ar    1  UNL1        0.0888
      5 N          62.0930   88.4397   11.8845 N.ar    1  UNL1       -0.2457
      6 C          63.0990   89.2611   12.6351 C.ar    1  UNL1        0.0985
      7 C          66.6277   93.0069   14.2984 C.ar    1  UNL1        0.1660
      8 C          66.0907   91.7432   14.9022 C.ar    1  UNL1        0.0392
      9 C          65.0847   90.9218   14.1516 C.ar    1  UNL1        0.0033
     10 C          64.6157   91.3642   12.7973 C.ar    1  UNL1        0.0039
     11 C          65.1527   92.6280   12.1936 C.ar    1  UNL1        0.0328
     12 C          66.1587   93.4493   12.9441 C.ar    1  UNL1        0.1738
     13 F          66.6956   94.7131   12.3403 F       1  UNL1       -0.2010
     14 C          68.7198   93.1521   15.8320 C.3     1  UNL1        0.2526
     15 O          67.6337   93.8283   15.0490 O.3     1  UNL1       -0.4692
     16 C          60.5917   88.0788    9.7951 C.3     1  UNL1        0.1873
     17 O          61.0508   87.0735    8.7809 O.3     1  UNL1       -0.3497
     18 C          62.0001   85.9835    9.1818 C.3     1  UNL1        0.1197
     19 C          63.0641   85.1925    8.4802 C.3     1  UNL1        0.0548
     20 C          63.3426   84.4420    9.7488 C.3     1  UNL1        0.1179
     21 C          62.2786   85.2330   10.4503 C.3     1  UNL1        0.0548
     22 N          64.2919   83.3520   10.1497 N.2     1  UNL1       -0.2240
     23 C          64.1232   82.6582   11.4689 C.1     1  UNL1        0.0364
     24 S          63.9545   81.9644   12.7880 S.2     1  UNL1        0.0203
@<TRIPOS>BOND
     1    14    15    1
     2    15     7    1
     3     7     8   ar
     4     8     9   ar
     5     9    10   ar
     6    10     1    1
     7     1     2   ar
     8     2     3   ar
     9     3     4   ar
    10     4    16    1
    11    16    17    1
    12    18    17    1
    13    18    19    1
    14    19    20    1
    15    20    22    1
    16    22    23    2
    17    23    24    2
    18    20    21    1
    19     4     5   ar
    20     5     6   ar
    21    10    11   ar
    22    11    12   ar
    23    12    13    1
    24    12     7   ar
    25     6     1   ar
    26    21    18    1
@<TRIPOS>MOLECULE
*****
 24 26 0 0 0
SMALL
GASTEIGER

@<TRIPOS>ATOM
      1 C          62.3706   88.0667   10.7708 C.ar    1  UNL1        0.0192
      2 C          62.1489   89.5484   10.6967 C.ar    1  UNL1        0.0028
      3 C          62.5816   90.4291   11.8312 C.ar    1  UNL1        0.0173
      4 C          63.2359   89.8282   13.0398 C.ar    1  UNL1        0.0888
      5 N          63.4576   88.3465   13.1139 N.ar    1  UNL1       -0.2457
      6 C          63.0249   87.4658   11.9794 C.ar    1  UNL1        0.0985
      7 C          61.0726   85.4245    7.3673 C.ar    1  UNL1        0.1660
      8 C          62.4563   85.2952    7.9315 C.ar    1  UNL1        0.0392
      9 C          62.8890   86.1760    9.0660 C.ar    1  UNL1        0.0033
     10 C          61.9379   87.1860    9.6363 C.ar    1  UNL1        0.0039
     11 C          60.5542   87.3153    9.0720 C.ar    1  UNL1        0.0328
     12 C          60.1215   86.4346    7.9375 C.ar    1  UNL1        0.1738
     13 F          58.7376   86.5639    7.3732 F       1  UNL1       -0.2010
     14 C          61.6380   84.1008    5.2044 C.3     1  UNL1        0.2526
     15 O          60.6399   84.5438    6.2327 O.3     1  UNL1       -0.4692
     16 C          63.6686   90.7089   14.1743 C.3     1  UNL1        0.1873
     17 O          65.0983   91.1507   14.2777 O.3     1  UNL1       -0.3497
     18 C          65.6194   92.2235   13.3680 C.3     1  UNL1        0.1197
     19 C          65.6063   92.4563   11.8861 C.3     1  UNL1        0.0548
     20 C          66.3565   93.7405   12.0814 C.3     1  UNL1        0.1179
     21 C          66.3696   93.5077   13.5630 C.3     1  UNL1        0.0548
     22 N          66.8776   94.8132   11.1716 N.2     1  UNL1       -0.2240
     23 C          65.9362   95.8258   10.5897 C.1     1  UNL1        0.0364
     24 S          64.9949   96.8383   10.0078 S.2     1  UNL1        0.0203
@<TRIPOS>BOND
     1    14    15    1
     2    15     7    1
     3     7     8   ar
     4     8     9   ar
     5     9    10   ar
     6    10     1    1
     7     1     2   ar
     8     2     3   ar
     9     3     4   ar
    10     4    16    1
    11    16    17    1
    12    18    17    1
    13    18    19    1
    14    19    20    1
    15    20    22    1
    16    22    23    2
    17    23    24    2
    18    20    21    1
    19     4     5   ar
    20     5     6   ar
    21    10    11   ar
    22    11    12   ar
    23    12    13    1
    24    12     7   ar
    25     6     1   ar
    26    21    18    1
@<TRIPOS>MOLECULE
*****
 24 26 0 0 0
SMALL
GASTEIGER

@<TRIPOS>ATOM
      1 C          63.5049   85.5151   13.0696 C.ar    1  UNL1        0.0192
      2 C          64.2172   85.8399   14.3491 C.ar    1  UNL1        0.0028
      3 C          64.4135   87.2702   14.7560 C.ar    1  UNL1        0.0173
      4 C          63.8975   88.3758   13.8835 C.ar    1  UNL1        0.0888
      5 N          63.1852   88.0511   12.6040 N.ar    1  UNL1       -0.2457
      6 C          62.9889   86.6207   12.1971 C.ar    1  UNL1        0.0985
      7 C          62.9160   81.2241   11.8488 C.ar    1  UNL1        0.1660
      8 C          63.5565   82.1928   10.8994 C.ar    1  UNL1        0.0392
      9 C          63.7528   83.6232   11.3064 C.ar    1  UNL1        0.0033
     10 C          63.3086   84.0848   12.6627 C.ar    1  UNL1        0.0039
     11 C          62.6681   83.1161   13.6120 C.ar    1  UNL1        0.0328
     12 C          62.4718   81.6857   13.2051 C.ar    1  UNL1        0.1738
     13 F          61.8313   80.7170   14.1545 F       1  UNL1       -0.2010
     14 C          62.8976   79.3908   10.0080 C.3     1  UNL1        0.2526
     15 O          62.7197   79.7938   11.4419 O.3     1  UNL1       -0.4692
     16 C          64.0938   89.8061   14.2904 C.3     1  UNL1        0.1873
     17 O          65.4718   90.3985   14.3081 O.3     1  UNL1       -0.3497
     18 C          65.7547   91.6622   13.5511 C.3     1  UNL1        0.1197
     19 C          65.1877   92.3134   12.3245 C.3     1  UNL1        0.0548
     20 C          66.1549   93.4492   12.4805 C.3     1  UNL1        0.1179
     21 C          66.7219   92.7980   13.7069 C.3     1  UNL1        0.0548
     22 N          66.4378   94.7128   11.7234 N.2     1  UNL1       -0.2240
     23 C          66.9778   94.6448   10.3256 C.1     1  UNL1        0.0364
     24 S          67.5177   94.5767    8.9278 S.2     1  UNL1        0.0203
@<TRIPOS>BOND
     1    14    15    1
     2    15     7    1
     3     7     8   ar
     4     8     9   ar
     5     9    10   ar
     6    10     1    1
     7     1     2   ar
     8     2     3   ar
     9     3     4   ar
    10     4    16    1
    11    16    17    1
    12    18    17    1
    13    18    19    1
    14    19    20    1
    15    20    22    1
    16    22    23    2
    17    23    24    2
    18    20    21    1
    19     4     5   ar
    20     5     6   ar
    21    10    11   ar
    22    11    12   ar
    23    12    13    1
    24    12     7   ar
    25     6     1   ar
    26    21    18    1
@<TRIPOS>MOLECULE
*****
 24 26 0 0 0
SMALL
GASTEIGER

@<TRIPOS>ATOM
      1 C          62.7190   86.3729   11.7366 C.ar    1  UNL1        0.0192
      2 C          62.0523   86.7245   10.4398 C.ar    1  UNL1        0.0028
      3 C          61.8934   88.1625   10.0438 C.ar    1  UNL1        0.0173
      4 C          62.4012   89.2490   10.9447 C.ar    1  UNL1        0.0888
      5 N          63.0679   88.8974   12.2415 N.ar    1  UNL1       -0.2457
      6 C          63.2268   87.4594   12.6375 C.ar    1  UNL1        0.0985
      7 C          63.1957   82.0588   12.9245 C.ar    1  UNL1        0.1660
      8 C          63.0049   83.1099   13.9774 C.ar    1  UNL1        0.0392
      9 C          62.8460   84.5480   13.5814 C.ar    1  UNL1        0.0033
     10 C          62.8779   84.9349   12.1326 C.ar    1  UNL1        0.0039
     11 C          63.0687   83.8837   11.0797 C.ar    1  UNL1        0.0328
     12 C          63.2276   82.4457   11.4756 C.ar    1  UNL1        0.1738
     13 F          63.4185   81.3945   10.4227 F       1  UNL1       -0.2010
     14 C          62.1478   79.7379   13.4394 C.3     1  UNL1        0.2526
     15 O          63.3546   80.6207   13.3205 O.3     1  UNL1       -0.4692
     16 C          62.2423   90.6870   10.5487 C.3     1  UNL1        0.1873
     17 O          63.4034   91.4374    9.9667 O.3     1  UNL1       -0.3497
     18 C          64.4154   92.0736   10.8729 C.3     1  UNL1        0.1197
     19 C          65.5197   93.0730   10.6939 C.3     1  UNL1        0.0548
     20 C          65.8466   92.9732   12.1544 C.3     1  UNL1        0.1179
     21 C          64.7425   91.9739   12.3334 C.3     1  UNL1        0.0548
     22 N          66.8586   93.6094   13.0605 N.2     1  UNL1       -0.2240
     23 C          66.9517   93.1848   14.4962 C.1     1  UNL1        0.0364
     24 S          67.0447   92.7602   15.9318 S.2     1  UNL1        0.0203
@<TRIPOS>BOND
     1    14    15    1
     2    15     7    1
     3     7     8   ar
     4     8     9   ar
     5     9    10   ar
     6    10     1    1
     7     1     2   ar
     8     2     3   ar
     9     3     4   ar
    10     4    16    1
    11    16    17    1
    12    18    17    1
    13    18    19    1
    14    19    20    1
    15    20    22    1
    16    22    23    2
    17    23    24    2
    18    20    21    1
    19     4     5   ar
    20     5     6   ar
    21    10    11   ar
    22    11    12   ar
    23    12    13    1
    24    12     7   ar
    25     6     1   ar
    26    21    18    1
@<TRIPOS>MOLECULE
*****
 24 26 0 0 0
SMALL
GASTEIGER

@<TRIPOS>ATOM
      1 C          62.6939   86.4506   11.6343 C.ar    1  UNL1        0.0192
      2 C          62.0845   86.8406   10.3203 C.ar    1  UNL1        0.0028
      3 C          61.9249   88.2900    9.9683 C.ar    1  UNL1        0.0173
      4 C          62.3746   89.3493   10.9303 C.ar    1  UNL1        0.0888
      5 N          62.9841   88.9593   12.2442 N.ar    1  UNL1       -0.2457
      6 C          63.1437   87.5100   12.5962 C.ar    1  UNL1        0.0985
      7 C          63.1728   82.1026   12.6902 C.ar    1  UNL1        0.1660
      8 C          63.3132   82.5481   11.2648 C.ar    1  UNL1        0.0392
      9 C          63.1535   83.9974   10.9128 C.ar    1  UNL1        0.0033
     10 C          62.8536   85.0013   11.9862 C.ar    1  UNL1        0.0039
     11 C          62.7132   84.5558   13.4116 C.ar    1  UNL1        0.0328
     12 C          62.8729   83.1064   13.7636 C.ar    1  UNL1        0.1738
     13 F          62.7325   82.6609   15.1891 F       1  UNL1       -0.2010
     14 C          62.1244   79.8179   13.3468 C.3     1  UNL1        0.2526
     15 O          63.3325   80.6532   13.0421 O.3     1  UNL1       -0.4692
     16 C          62.2150   90.7987   10.5783 C.3     1  UNL1        0.1873
     17 O          63.3640   91.5567    9.9823 O.3     1  UNL1       -0.3497
     18 C          64.4660   92.0641   10.8645 C.3     1  UNL1        0.1197
     19 C          65.7095   92.8747   10.6484 C.3     1  UNL1        0.0548
     20 C          66.0244   92.7816   12.1120 C.3     1  UNL1        0.1179
     21 C          64.7810   91.9710   12.3281 C.3     1  UNL1        0.0548
     22 N          67.1265   93.2889   12.9941 N.2     1  UNL1       -0.2240
     23 C          67.0815   93.0348   14.4718 C.1     1  UNL1        0.0364
     24 S          67.0365   92.7806   15.9494 S.2     1  UNL1        0.0203
@<TRIPOS>BOND
     1    14    15    1
     2    15     7    1
     3     7     8   ar
     4     8     9   ar
     5     9    10   ar
     6    10     1    1
     7     1     2   ar
     8     2     3   ar
     9     3     4   ar
    10     4    16    1
    11    16    17    1
    12    18    17    1
    13    18    19    1
    14    19    20    1
    15    20    22    1
    16    22    23    2
    17    23    24    2
    18    20    21    1
    19     4     5   ar
    20     5     6   ar
    21    10    11   ar
    22    11    12   ar
    23    12    13    1
    24    12     7   ar
    25     6     1   ar
    26    21    18    1
@<TRIPOS>MOLECULE
*****
 24 26 0 0 0
SMALL
GASTEIGER

@<TRIPOS>ATOM
      1 C          63.5691   86.4095   13.3479 C.ar    1  UNL1        0.0192
      2 C          63.1386   87.4533   12.3604 C.ar    1  UNL1        0.0028
      3 C          63.3948   88.9040   12.6429 C.ar    1  UNL1        0.0173
      4 C          64.0813   89.3109   13.9129 C.ar    1  UNL1        0.0888
      5 N          64.5118   88.2671   14.9004 N.ar    1  UNL1       -0.2457
      6 C          64.2556   86.8164   14.6179 C.ar    1  UNL1        0.0985
      7 C          62.8006   82.0573   12.5003 C.ar    1  UNL1        0.1660
      8 C          62.4855   82.6251   13.8524 C.ar    1  UNL1        0.0392
      9 C          62.7417   84.0758   14.1350 C.ar    1  UNL1        0.0033
     10 C          63.3129   84.9588   13.0654 C.ar    1  UNL1        0.0039
     11 C          63.6280   84.3910   11.7133 C.ar    1  UNL1        0.0328
     12 C          63.3719   82.9402   11.4307 C.ar    1  UNL1        0.1738
     13 F          63.6870   82.3725   10.0785 F       1  UNL1       -0.2010
     14 C          62.3346   79.6474   13.3517 C.3     1  UNL1        0.2526
     15 O          62.5445   80.6066   12.2178 O.3     1  UNL1       -0.4692
     16 C          64.3375   90.7616   14.1954 C.3     1  UNL1        0.1873
     17 O          64.0281   91.7947   13.1529 O.3     1  UNL1       -0.3497
     18 C          65.1171   92.3055   12.2567 C.3     1  UNL1        0.1197
     19 C          66.4666   92.9235   12.4734 C.3     1  UNL1        0.0548
     20 C          66.6571   93.0277   10.9892 C.3     1  UNL1        0.1179
     21 C          65.3077   92.4098   10.7725 C.3     1  UNL1        0.0548
     22 N          67.7461   93.5384   10.0930 N.2     1  UNL1       -0.2240
     23 C          67.5530   94.8162    9.3312 C.1     1  UNL1        0.0364
     24 S          67.3600   96.0938    8.5695 S.2     1  UNL1        0.0203
@<TRIPOS>BOND
     1    14    15    1
     2    15     7    1
     3     7     8   ar
     4     8     9   ar
     5     9    10   ar
     6    10     1    1
     7     1     2   ar
     8     2     3   ar
     9     3     4   ar
    10     4    16    1
    11    16    17    1
    12    18    17    1
    13    18    19    1
    14    19    20    1
    15    20    22    1
    16    22    23    2
    17    23    24    2
    18    20    21    1
    19     4     5   ar
    20     5     6   ar
    21    10    11   ar
    22    11    12   ar
    23    12    13    1
    24    12     7   ar
    25     6     1   ar
    26    21    18    1
@<TRIPOS>MOLECULE
*****
 24 26 0 0 0
SMALL
GASTEIGER

@<TRIPOS>ATOM
      1 C          63.1788   89.3531   12.4224 C.ar    1  UNL1        0.0192
      2 C          63.9187   88.6905   13.5464 C.ar    1  UNL1        0.0028
      3 C          64.6498   89.5236   14.5571 C.ar    1  UNL1        0.0173
      4 C          64.6410   91.0192   14.4437 C.ar    1  UNL1        0.0888
      5 N          63.9012   91.6818   13.3197 N.ar    1  UNL1       -0.2457
      6 C          63.1701   90.8487   12.3090 C.ar    1  UNL1        0.0985
      7 C          60.9856   86.8538    9.3904 C.ar    1  UNL1        0.1660
      8 C          60.9794   88.3493    9.2752 C.ar    1  UNL1        0.0392
      9 C          61.7104   89.1824   10.2859 C.ar    1  UNL1        0.0033
     10 C          62.4478   88.5200   11.4117 C.ar    1  UNL1        0.0039
     11 C          62.4540   87.0244   11.5268 C.ar    1  UNL1        0.0328
     12 C          61.7229   86.1913   10.5162 C.ar    1  UNL1        0.1738
     13 F          61.7291   84.6957   10.6313 F       1  UNL1       -0.2010
     14 C          59.1049   86.6069    7.6150 C.3     1  UNL1        0.2526
     15 O          60.2545   86.0207    8.3797 O.3     1  UNL1       -0.4692
     16 C          65.3721   91.8523   15.4544 C.3     1  UNL1        0.1873
     17 O          66.3008   92.9391   15.0000 O.3     1  UNL1       -0.3497
     18 C          66.6353   93.0798   13.5446 C.3     1  UNL1        0.1197
     19 C          67.4091   92.2654   12.5505 C.3     1  UNL1        0.0548
     20 C          67.1084   93.2788   11.4863 C.3     1  UNL1        0.1179
     21 C          66.3347   94.0931   12.4803 C.3     1  UNL1        0.0548
     22 N          67.4430   93.4195   10.0309 N.2     1  UNL1       -0.2240
     23 C          67.3509   94.7613    9.3665 C.1     1  UNL1        0.0364
     24 S          67.2589   96.1029    8.7021 S.2     1  UNL1        0.0203
@<TRIPOS>BOND
     1    14    15    1
     2    15     7    1
     3     7     8   ar
     4     8     9   ar
     5     9    10   ar
     6    10     1    1
     7     1     2   ar
     8     2     3   ar
     9     3     4   ar
    10     4    16    1
    11    16    17    1
    12    18    17    1
    13    18    19    1
    14    19    20    1
    15    20    22    1
    16    22    23    2
    17    23    24    2
    18    20    21    1
    19     4     5   ar
    20     5     6   ar
    21    10    11   ar
    22    11    12   ar
    23    12    13    1
    24    12     7   ar
    25     6     1   ar
    26    21    18    1
@<TRIPOS>MOLECULE
*****
 24 26 0 0 0
SMALL
GASTEIGER

@<TRIPOS>ATOM
      1 C          62.3284   89.4345   10.8631 C.ar    1  UNL1        0.0192
      2 C          62.4280   88.0169   10.3831 C.ar    1  UNL1        0.0028
      3 C          61.5094   87.5241    9.3046 C.ar    1  UNL1        0.0173
      4 C          60.4913   88.4488    8.7060 C.ar    1  UNL1        0.0888
      5 N          60.3917   89.8664    9.1861 N.ar    1  UNL1       -0.2457
      6 C          61.3103   90.3592   10.2646 C.ar    1  UNL1        0.0985
      7 C          65.0842   90.9132   14.0988 C.ar    1  UNL1        0.1660
      8 C          64.4571   89.5552   14.2104 C.ar    1  UNL1        0.0392
      9 C          63.5385   89.0623   13.1319 C.ar    1  UNL1        0.0033
     10 C          63.2470   89.9274   11.9417 C.ar    1  UNL1        0.0039
     11 C          63.8742   91.2854   11.8300 C.ar    1  UNL1        0.0328
     12 C          64.7928   91.7783   12.9086 C.ar    1  UNL1        0.1738
     13 F          65.4199   93.1364   12.7969 F       1  UNL1       -0.2010
     14 C          67.4595   91.6124   14.8854 C.3     1  UNL1        0.2526
     15 O          66.0028   91.4061   15.1773 O.3     1  UNL1       -0.4692
     16 C          59.5727   87.9559    7.6275 C.3     1  UNL1        0.1873
     17 O          58.4540   88.8275    7.1388 O.3     1  UNL1       -0.3497
     18 C          58.7411   89.9577    6.1953 C.3     1  UNL1        0.1197
     19 C          57.9051   90.9550    5.4493 C.3     1  UNL1        0.0548
     20 C          59.1471   91.5560    4.8609 C.3     1  UNL1        0.1179
     21 C          59.9831   90.5587    5.6068 C.3     1  UNL1        0.0548
     22 N          59.4342   92.6862    3.9174 N.2     1  UNL1       -0.2240
     23 C          60.6636   92.6523    3.0585 C.1     1  UNL1        0.0364
     24 S          61.8929   92.6184    2.1997 S.2     1  UNL1        0.0203
@<TRIPOS>BOND
     1    14    15    1
     2    15     7    1
     3     7     8   ar
     4     8     9   ar
     5     9    10   ar
     6    10     1    1
     7     1     2   ar
     8     2     3   ar
     9     3     4   ar
    10     4    16    1
    11    16    17    1
    12    18    17    1
    13    18    19    1
    14    19    20    1
    15    20    22    1
    16    22    23    2
    17    23    24    2
    18    20    21    1
    19     4     5   ar
    20     5     6   ar
    21    10    11   ar
    22    11    12   ar
    23    12    13    1
    24    12     7   ar
    25     6     1   ar
    26    21    18    1
