@<TRIPOS>MOLECULE
*****
 26 28 0 0 0
SMALL
GASTEIGER

@<TRIPOS>ATOM
      1 C          64.8905   90.7496   14.6412 C.3     1  UNL1        0.0061
      2 C          65.1395   91.4483   13.3374 C.3     1  UNL1        0.0373
      3 C          65.7961   92.3198   12.3082 C.3     1  UNL1        0.0075
      4 C          65.1925   92.4512   10.9413 C.3     1  UNL1        0.0219
      5 C          63.9321   91.7112   10.6037 C.3     1  UNL1        0.0950
      6 N          63.2755   90.8397   11.6329 N.am    1  UNL1       -0.2639
      7 C          62.0152   90.0997   11.2953 C.2     1  UNL1        0.3040
      8 O          61.3586   89.2282   12.3246 O.2     1  UNL1       -0.2526
      9 N          61.4115   90.2311    9.9285 N.am    1  UNL1       -0.2888
     10 C          63.8792   90.7083   12.9998 C.3     1  UNL1        0.0989
     11 H          61.8425   90.8031    9.2529 H       1  UNL1        0.1510
     12 C          66.3134   91.9457   14.1279 C.ar    1  UNL1       -0.0212
     13 C          66.1038   92.5374   15.4901 C.ar    1  UNL1       -0.0042
     14 C          67.2776   93.0347   16.2805 C.ar    1  UNL1       -0.0003
     15 C          68.6611   92.9404   15.7086 C.ar    1  UNL1       -0.0000
     16 C          68.8707   92.3486   14.3463 C.ar    1  UNL1       -0.0003
     17 C          67.6969   91.8513   13.5559 C.ar    1  UNL1       -0.0042
     18 C          60.1512   89.4911    9.5910 C.3     1  UNL1        0.0913
     19 C          60.1578   87.9927    9.5190 C.3     1  UNL1        0.0260
     20 C          61.3292   87.2760    8.9158 C.3     1  UNL1        0.0297
     21 C          61.9739   86.1398    9.6529 C.ar    1  UNL1       -0.0030
     22 C          62.9315   85.2310    8.9407 C.ar    1  UNL1       -0.0011
     23 C          63.5761   84.0947    9.6777 C.ar    1  UNL1        0.0204
     24 C          63.2633   83.8671   11.1269 C.ar    1  UNL1        0.0989
     25 N          62.3056   84.7759   11.8392 N.ar    1  UNL1       -0.2426
     26 C          61.6610   85.9122   11.1021 C.ar    1  UNL1        0.0946
@<TRIPOS>BOND
     1     1     2    1
     2     2    12    1
     3    12    13   ar
     4    13    14   ar
     5    14    15   ar
     6    15    16   ar
     7    16    17   ar
     8     2     3    1
     9     3     4    1
    10     4     5    1
    11     5     6    1
    12     6     7   am
    13     7     8    2
    14     7     9   am
    15     9    18    1
    16    18    19    1
    17    19    20    1
    18    20    21    1
    19    21    22   ar
    20    22    23   ar
    21    23    24   ar
    22    24    25   ar
    23    25    26   ar
    24     6    10    1
    25    10     2    1
    26    17    12   ar
    27    26    21   ar
    28     9    11    1
@<TRIPOS>MOLECULE
*****
 26 28 0 0 0
SMALL
GASTEIGER

@<TRIPOS>ATOM
      1 C          64.6228   92.3010   10.8011 C.3     1  UNL1        0.0061
      2 C          65.5661   92.3789   11.9648 C.3     1  UNL1        0.0373
      3 C          66.7664   92.7510   12.7837 C.3     1  UNL1        0.0075
      4 C          66.8989   92.2492   14.1911 C.3     1  UNL1        0.0219
      5 C          65.8311   91.3753   14.7794 C.3     1  UNL1        0.0950
      6 N          64.6308   91.0033   13.9605 N.am    1  UNL1       -0.2639
      7 C          63.5629   90.1294   14.5488 C.2     1  UNL1        0.3040
      8 O          62.3626   89.7574   13.7298 O.2     1  UNL1       -0.2526
      9 N          63.6955   89.6276   15.9562 N.am    1  UNL1       -0.2888
     10 C          64.4982   91.5051   12.5531 C.3     1  UNL1        0.0989
     11 H          64.4833   89.8718   16.4937 H       1  UNL1        0.1510
     12 C          66.3063   93.2257   10.9722 C.ar    1  UNL1       -0.0212
     13 C          65.9551   94.6753   10.8135 C.ar    1  UNL1       -0.0042
     14 C          66.6953   95.5220    9.8210 C.ar    1  UNL1       -0.0003
     15 C          67.7867   94.9191    8.9872 C.ar    1  UNL1       -0.0000
     16 C          68.1379   93.4695    9.1459 C.ar    1  UNL1       -0.0003
     17 C          67.3977   92.6228   10.1384 C.ar    1  UNL1       -0.0042
     18 C          62.6276   88.7538   16.5444 C.3     1  UNL1        0.0913
     19 C          62.9994   87.6429   17.4814 C.3     1  UNL1        0.0260
     20 C          62.4849   86.2548   17.2404 C.3     1  UNL1        0.0297
     21 C          63.0803   85.4128   16.1511 C.ar    1  UNL1       -0.0030
     22 C          64.3855   85.8079   15.5263 C.ar    1  UNL1       -0.0011
     23 C          64.9809   84.9660   14.4370 C.ar    1  UNL1        0.0204
     24 C          64.2713   83.7288   13.9725 C.ar    1  UNL1        0.0989
     25 N          62.9660   83.3337   14.5973 N.ar    1  UNL1       -0.2426
     26 C          62.3706   84.1757   15.6866 C.ar    1  UNL1        0.0946
@<TRIPOS>BOND
     1     1     2    1
     2     2    12    1
     3    12    13   ar
     4    13    14   ar
     5    14    15   ar
     6    15    16   ar
     7    16    17   ar
     8     2     3    1
     9     3     4    1
    10     4     5    1
    11     5     6    1
    12     6     7   am
    13     7     8    2
    14     7     9   am
    15     9    18    1
    16    18    19    1
    17    19    20    1
    18    20    21    1
    19    21    22   ar
    20    22    23   ar
    21    23    24   ar
    22    24    25   ar
    23    25    26   ar
    24     6    10    1
    25    10     2    1
    26    17    12   ar
    27    26    21   ar
    28     9    11    1
@<TRIPOS>MOLECULE
*****
 26 28 0 0 0
SMALL
GASTEIGER

@<TRIPOS>ATOM
      1 C          62.3697   86.2553   11.1140 C.3     1  UNL1        0.0061
      2 C          62.2138   87.6587   10.6080 C.3     1  UNL1        0.0373
      3 C          61.8617   88.7980    9.6981 C.3     1  UNL1        0.0075
      4 C          62.1287   90.2104   10.1268 C.3     1  UNL1        0.0219
      5 C          62.7477   90.4835   11.4656 C.3     1  UNL1        0.0950
      6 N          63.0998   89.3442   12.3755 N.am    1  UNL1       -0.2639
      7 C          63.7189   89.6173   13.7143 C.2     1  UNL1        0.3040
      8 O          64.0710   88.4779   14.6242 O.2     1  UNL1       -0.2526
      9 N          63.9858   91.0297   14.1431 N.am    1  UNL1       -0.2888
     10 C          62.8329   87.9318   11.9468 C.3     1  UNL1        0.0989
     11 H          63.7548   91.7775   13.5459 H       1  UNL1        0.1510
     12 C          61.6489   86.8982    9.4450 C.ar    1  UNL1       -0.0212
     13 C          62.5071   85.9178    8.7019 C.ar    1  UNL1       -0.0042
     14 C          61.9422   85.1573    7.5390 C.ar    1  UNL1       -0.0003
     15 C          60.5191   85.3773    7.1191 C.ar    1  UNL1       -0.0000
     16 C          59.6608   86.3577    7.8622 C.ar    1  UNL1       -0.0003
     17 C          60.2258   87.1181    9.0251 C.ar    1  UNL1       -0.0042
     18 C          64.6049   91.3027   15.4818 C.3     1  UNL1        0.0913
     19 C          65.8481   92.1367   15.5771 C.3     1  UNL1        0.0260
     20 C          67.0284   91.8258   14.7055 C.3     1  UNL1        0.0297
     21 C          67.0846   92.3537   13.3026 C.ar    1  UNL1       -0.0030
     22 C          66.1742   93.4702   12.8844 C.ar    1  UNL1       -0.0011
     23 C          66.2304   93.9981   11.4815 C.ar    1  UNL1        0.0204
     24 C          67.1968   93.4098   10.4968 C.ar    1  UNL1        0.0989
     25 N          68.1072   92.2933   10.9150 N.ar    1  UNL1       -0.2426
     26 C          68.0510   91.7654   12.3179 C.ar    1  UNL1        0.0946
@<TRIPOS>BOND
     1     1     2    1
     2     2    12    1
     3    12    13   ar
     4    13    14   ar
     5    14    15   ar
     6    15    16   ar
     7    16    17   ar
     8     2     3    1
     9     3     4    1
    10     4     5    1
    11     5     6    1
    12     6     7   am
    13     7     8    2
    14     7     9   am
    15     9    18    1
    16    18    19    1
    17    19    20    1
    18    20    21    1
    19    21    22   ar
    20    22    23   ar
    21    23    24   ar
    22    24    25   ar
    23    25    26   ar
    24     6    10    1
    25    10     2    1
    26    17    12   ar
    27    26    21   ar
    28     9    11    1
@<TRIPOS>MOLECULE
*****
 26 28 0 0 0
SMALL
GASTEIGER

@<TRIPOS>ATOM
      1 C          62.3977   84.8623   11.8097 C.3     1  UNL1        0.0061
      2 C          63.1919   84.9101   13.0813 C.3     1  UNL1        0.0373
      3 C          63.9005   84.4452   14.3189 C.3     1  UNL1        0.0075
      4 C          64.5797   85.4401   15.2127 C.3     1  UNL1        0.0219
      5 C          64.5503   86.8999   14.8689 C.3     1  UNL1        0.0950
      6 N          63.8417   87.3648   13.6314 N.am    1  UNL1       -0.2639
      7 C          63.8122   88.8246   13.2875 C.2     1  UNL1        0.3040
      8 O          63.1036   89.2894   12.0499 O.2     1  UNL1       -0.2526
      9 N          64.4914   89.8194   14.1814 N.am    1  UNL1       -0.2888
     10 C          63.1625   86.3699   12.7375 C.3     1  UNL1        0.0989
     11 H          64.9565   89.5143   14.9937 H       1  UNL1        0.1510
     12 C          62.9455   83.4337   12.9834 C.ar    1  UNL1       -0.0212
     13 C          63.2322   82.7088   11.7019 C.ar    1  UNL1       -0.0042
     14 C          62.9858   81.2324   11.6041 C.ar    1  UNL1       -0.0003
     15 C          62.4527   80.4810   12.7878 C.ar    1  UNL1       -0.0000
     16 C          62.1660   81.2059   14.0693 C.ar    1  UNL1       -0.0003
     17 C          62.4124   82.6822   14.1671 C.ar    1  UNL1       -0.0042
     18 C          64.4619   91.2792   13.8375 C.3     1  UNL1        0.0913
     19 C          65.4882   91.8508   12.9046 C.3     1  UNL1        0.0260
     20 C          65.0787   92.3366   11.5460 C.3     1  UNL1        0.0297
     21 C          66.0390   93.1333   10.7134 C.ar    1  UNL1       -0.0030
     22 C          67.2527   92.4726   10.1299 C.ar    1  UNL1       -0.0011
     23 C          68.2130   93.2693    9.2973 C.ar    1  UNL1        0.0204
     24 C          67.9597   94.7265    9.0483 C.ar    1  UNL1        0.0989
     25 N          66.7460   95.3872    9.6318 N.ar    1  UNL1       -0.2426
     26 C          65.7857   94.5906   10.4644 C.ar    1  UNL1        0.0946
@<TRIPOS>BOND
     1     1     2    1
     2     2    12    1
     3    12    13   ar
     4    13    14   ar
     5    14    15   ar
     6    15    16   ar
     7    16    17   ar
     8     2     3    1
     9     3     4    1
    10     4     5    1
    11     5     6    1
    12     6     7   am
    13     7     8    2
    14     7     9   am
    15     9    18    1
    16    18    19    1
    17    19    20    1
    18    20    21    1
    19    21    22   ar
    20    22    23   ar
    21    23    24   ar
    22    24    25   ar
    23    25    26   ar
    24     6    10    1
    25    10     2    1
    26    17    12   ar
    27    26    21   ar
    28     9    11    1
@<TRIPOS>MOLECULE
*****
 26 28 0 0 0
SMALL
GASTEIGER

@<TRIPOS>ATOM
      1 C          65.8133   92.3438   12.4401 C.3     1  UNL1        0.0061
      2 C          65.2636   91.4322   13.4970 C.3     1  UNL1        0.0373
      3 C          65.1302   90.7090   14.8043 C.3     1  UNL1        0.0075
      4 C          63.9892   89.7604   15.0236 C.3     1  UNL1        0.0219
      5 C          62.9815   89.5351   13.9355 C.3     1  UNL1        0.0950
      6 N          63.1149   90.2583   12.6282 N.am    1  UNL1       -0.2639
      7 C          62.1072   90.0330   11.5401 C.2     1  UNL1        0.3040
      8 O          62.2407   90.7564   10.2329 O.2     1  UNL1       -0.2526
      9 N          60.9661   89.0844   11.7594 N.am    1  UNL1       -0.2888
     10 C          64.2560   91.2069   12.4090 C.3     1  UNL1        0.0989
     11 H          60.8786   88.6097   12.6174 H       1  UNL1        0.1510
     12 C          66.4623   91.9741   14.2180 C.ar    1  UNL1       -0.0212
     13 C          67.8250   91.8545   13.6028 C.ar    1  UNL1       -0.0042
     14 C          69.0235   92.3964   14.3238 C.ar    1  UNL1       -0.0003
     15 C          68.8593   93.0579   15.6600 C.ar    1  UNL1       -0.0000
     16 C          67.4965   93.1776   16.2752 C.ar    1  UNL1       -0.0003
     17 C          66.2980   92.6357   15.5542 C.ar    1  UNL1       -0.0042
     18 C          59.9585   88.8592   10.6713 C.3     1  UNL1        0.0913
     19 C          60.0938   87.6778    9.7568 C.3     1  UNL1        0.0260
     20 C          61.4489   87.2565    9.2714 C.3     1  UNL1        0.0297
     21 C          62.1052   86.0360    9.8454 C.ar    1  UNL1       -0.0030
     22 C          62.9947   85.1879    8.9853 C.ar    1  UNL1       -0.0011
     23 C          63.6510   83.9674    9.5593 C.ar    1  UNL1        0.0204
     24 C          63.4179   83.5948   10.9935 C.ar    1  UNL1        0.0989
     25 N          62.5285   84.4429   11.8537 N.ar    1  UNL1       -0.2426
     26 C          61.8722   85.6634   11.2796 C.ar    1  UNL1        0.0946
@<TRIPOS>BOND
     1     1     2    1
     2     2    12    1
     3    12    13   ar
     4    13    14   ar
     5    14    15   ar
     6    15    16   ar
     7    16    17   ar
     8     2     3    1
     9     3     4    1
    10     4     5    1
    11     5     6    1
    12     6     7   am
    13     7     8    2
    14     7     9   am
    15     9    18    1
    16    18    19    1
    17    19    20    1
    18    20    21    1
    19    21    22   ar
    20    22    23   ar
    21    23    24   ar
    22    24    25   ar
    23    25    26   ar
    24     6    10    1
    25    10     2    1
    26    17    12   ar
    27    26    21   ar
    28     9    11    1
@<TRIPOS>MOLECULE
*****
 26 28 0 0 0
SMALL
GASTEIGER

@<TRIPOS>ATOM
      1 C          63.8437   84.3773   14.2863 C.3     1  UNL1        0.0061
      2 C          63.1481   84.8029   13.0273 C.3     1  UNL1        0.0373
      3 C          62.3725   84.7142   11.7465 C.3     1  UNL1        0.0075
      4 C          62.0691   85.9585   10.9657 C.3     1  UNL1        0.0219
      5 C          62.5413   87.2915   11.4658 C.3     1  UNL1        0.0950
      6 N          63.3169   87.3803   12.7466 N.am    1  UNL1       -0.2639
      7 C          63.7890   88.7133   13.2466 C.2     1  UNL1        0.3040
      8 O          64.5647   88.8020   14.5275 O.2     1  UNL1       -0.2526
      9 N          63.4856   89.9576   12.4658 N.am    1  UNL1       -0.2888
     10 C          63.6203   86.1360   13.5273 C.3     1  UNL1        0.0989
     11 H          62.9765   89.8994   11.6252 H       1  UNL1        0.1510
     12 C          62.9175   83.3220   12.9645 C.ar    1  UNL1       -0.0212
     13 C          63.2640   82.5612   11.7191 C.ar    1  UNL1       -0.0042
     14 C          63.0333   81.0804   11.6564 C.ar    1  UNL1       -0.0003
     15 C          62.4562   80.3604   12.8390 C.ar    1  UNL1       -0.0000
     16 C          62.1098   81.1213   14.0844 C.ar    1  UNL1       -0.0003
     17 C          62.3404   82.6021   14.1471 C.ar    1  UNL1       -0.0042
     18 C          63.9578   91.2906   12.9660 C.3     1  UNL1        0.0913
     19 C          65.3777   91.7172   12.7376 C.3     1  UNL1        0.0260
     20 C          65.6957   93.1613   12.4865 C.3     1  UNL1        0.0297
     21 C          66.4795   93.5562   11.2700 C.ar    1  UNL1       -0.0030
     22 C          67.2493   92.5206   10.5050 C.ar    1  UNL1       -0.0011
     23 C          68.0331   92.9154    9.2886 C.ar    1  UNL1        0.0204
     24 C          68.0472   94.3457    8.8370 C.ar    1  UNL1        0.0989
     25 N          67.2774   95.3813    9.6020 N.ar    1  UNL1       -0.2426
     26 C          66.4936   94.9865   10.8185 C.ar    1  UNL1        0.0946
@<TRIPOS>BOND
     1     1     2    1
     2     2    12    1
     3    12    13   ar
     4    13    14   ar
     5    14    15   ar
     6    15    16   ar
     7    16    17   ar
     8     2     3    1
     9     3     4    1
    10     4     5    1
    11     5     6    1
    12     6     7   am
    13     7     8    2
    14     7     9   am
    15     9    18    1
    16    18    19    1
    17    19    20    1
    18    20    21    1
    19    21    22   ar
    20    22    23   ar
    21    23    24   ar
    22    24    25   ar
    23    25    26   ar
    24     6    10    1
    25    10     2    1
    26    17    12   ar
    27    26    21   ar
    28     9    11    1
@<TRIPOS>MOLECULE
*****
 26 28 0 0 0
SMALL
GASTEIGER

@<TRIPOS>ATOM
      1 C          61.6898   89.4584    9.7249 C.3     1  UNL1        0.0061
      2 C          62.1498   88.3687   10.6474 C.3     1  UNL1        0.0373
      3 C          62.3655   86.9945   11.2084 C.3     1  UNL1        0.0075
      4 C          63.1251   86.8182   12.4898 C.3     1  UNL1        0.0219
      5 C          63.6690   88.0163   13.2102 C.3     1  UNL1        0.0950
      6 N          63.4533   89.3905   12.6491 N.am    1  UNL1       -0.2639
      7 C          63.9973   90.5886   13.3695 C.2     1  UNL1        0.3040
      8 O          63.7815   91.9628   12.8083 O.2     1  UNL1       -0.2526
      9 N          64.7568   90.4123   14.6508 N.am    1  UNL1       -0.2888
     10 C          62.6938   89.5668   11.3678 C.3     1  UNL1        0.0989
     11 H          64.8984   89.5103   15.0191 H       1  UNL1        0.1510
     12 C          61.4461   87.5491    9.6067 C.ar    1  UNL1       -0.0212
     13 C          62.1756   86.4431    8.9034 C.ar    1  UNL1       -0.0042
     14 C          61.4719   85.6236    7.8627 C.ar    1  UNL1       -0.0003
     15 C          60.0387   85.9100    7.5253 C.ar    1  UNL1       -0.0000
     16 C          59.3092   87.0160    8.2285 C.ar    1  UNL1       -0.0003
     17 C          60.0129   87.8356    9.2692 C.ar    1  UNL1       -0.0042
     18 C          65.3007   91.6104   15.3711 C.3     1  UNL1        0.0913
     19 C          66.5908   92.2322   14.9245 C.3     1  UNL1        0.0260
     20 C          66.5802   93.5535   14.2148 C.3     1  UNL1        0.0297
     21 C          66.6423   93.6007   12.7168 C.ar    1  UNL1       -0.0030
     22 C          67.1192   92.4043   11.9478 C.ar    1  UNL1       -0.0011
     23 C          67.1812   92.4516   10.4499 C.ar    1  UNL1        0.0204
     24 C          66.7664   93.6951    9.7208 C.ar    1  UNL1        0.0989
     25 N          66.2895   94.8915   10.4898 N.ar    1  UNL1       -0.2426
     26 C          66.2275   94.8442   11.9878 C.ar    1  UNL1        0.0946
@<TRIPOS>BOND
     1     1     2    1
     2     2    12    1
     3    12    13   ar
     4    13    14   ar
     5    14    15   ar
     6    15    16   ar
     7    16    17   ar
     8     2     3    1
     9     3     4    1
    10     4     5    1
    11     5     6    1
    12     6     7   am
    13     7     8    2
    14     7     9   am
    15     9    18    1
    16    18    19    1
    17    19    20    1
    18    20    21    1
    19    21    22   ar
    20    22    23   ar
    21    23    24   ar
    22    24    25   ar
    23    25    26   ar
    24     6    10    1
    25    10     2    1
    26    17    12   ar
    27    26    21   ar
    28     9    11    1
@<TRIPOS>MOLECULE
*****
 26 28 0 0 0
SMALL
GASTEIGER

@<TRIPOS>ATOM
      1 C          63.7131   84.5487   14.1099 C.3     1  UNL1        0.0061
      2 C          62.9915   84.8398   12.8275 C.3     1  UNL1        0.0373
      3 C          62.2040   84.6147   11.5709 C.3     1  UNL1        0.0075
      4 C          61.8567   85.7746   10.6855 C.3     1  UNL1        0.0219
      5 C          62.2969   87.1597   11.0568 C.3     1  UNL1        0.0950
      6 N          63.0844   87.3848   12.3135 N.am    1  UNL1       -0.2639
      7 C          63.5245   88.7699   12.6848 C.2     1  UNL1        0.3040
      8 O          64.3120   88.9949   13.9415 O.2     1  UNL1       -0.2526
      9 N          63.1772   89.9298   11.7994 N.am    1  UNL1       -0.2888
     10 C          63.4316   86.2248   13.1988 C.3     1  UNL1        0.0989
     11 H          62.6604   89.7821   10.9746 H       1  UNL1        0.1510
     12 C          62.8019   83.3536   12.9016 C.ar    1  UNL1       -0.0212
     13 C          63.1424   82.4943   11.7202 C.ar    1  UNL1       -0.0042
     14 C          62.9529   81.0082   11.7944 C.ar    1  UNL1       -0.0003
     15 C          62.4228   80.3814   13.0498 C.ar    1  UNL1       -0.0000
     16 C          62.0823   81.2407   14.2312 C.ar    1  UNL1       -0.0003
     17 C          62.2719   82.7268   14.1571 C.ar    1  UNL1       -0.0042
     18 C          63.6174   91.3148   12.1708 C.3     1  UNL1        0.0913
     19 C          64.8760   91.8839   11.5856 C.3     1  UNL1        0.0260
     20 C          65.5098   93.0946   12.2039 C.3     1  UNL1        0.0297
     21 C          66.6352   92.9350   13.1826 C.ar    1  UNL1       -0.0030
     22 C          66.5497   93.5778   14.5352 C.ar    1  UNL1       -0.0011
     23 C          67.6751   93.4181   15.5140 C.ar    1  UNL1        0.0204
     24 C          68.8860   92.6157   15.1403 C.ar    1  UNL1        0.0989
     25 N          68.9715   91.9728   13.7876 N.ar    1  UNL1       -0.2426
     26 C          67.8461   92.1325   12.8089 C.ar    1  UNL1        0.0946
@<TRIPOS>BOND
     1     1     2    1
     2     2    12    1
     3    12    13   ar
     4    13    14   ar
     5    14    15   ar
     6    15    16   ar
     7    16    17   ar
     8     2     3    1
     9     3     4    1
    10     4     5    1
    11     5     6    1
    12     6     7   am
    13     7     8    2
    14     7     9   am
    15     9    18    1
    16    18    19    1
    17    19    20    1
    18    20    21    1
    19    21    22   ar
    20    22    23   ar
    21    23    24   ar
    22    24    25   ar
    23    25    26   ar
    24     6    10    1
    25    10     2    1
    26    17    12   ar
    27    26    21   ar
    28     9    11    1
@<TRIPOS>MOLECULE
*****
 26 28 0 0 0
SMALL
GASTEIGER

@<TRIPOS>ATOM
      1 C          62.2672   84.7633   11.5335 C.3     1  UNL1        0.0061
      2 C          63.0728   84.9046   12.7909 C.3     1  UNL1        0.0373
      3 C          63.8163   84.5287   14.0383 C.3     1  UNL1        0.0075
      4 C          64.4588   85.5928   14.8779 C.3     1  UNL1        0.0219
      5 C          64.3578   87.0328   14.4700 C.3     1  UNL1        0.0950
      6 N          63.6143   87.4086   13.2227 N.am    1  UNL1       -0.2639
      7 C          63.5133   88.8486   12.8149 C.2     1  UNL1        0.3040
      8 O          62.7698   89.2244   11.5675 O.2     1  UNL1       -0.2526
      9 N          64.1558   89.9127   13.6545 N.am    1  UNL1       -0.2888
     10 C          62.9718   86.3446   12.3831 C.3     1  UNL1        0.0989
     11 H          64.6438   89.6660   14.4732 H       1  UNL1        0.1510
     12 C          62.8940   83.4155   12.7620 C.ar    1  UNL1       -0.0212
     13 C          62.4100   82.6943   13.9850 C.ar    1  UNL1       -0.0042
     14 C          62.2312   81.2053   13.9560 C.ar    1  UNL1       -0.0003
     15 C          62.5364   80.4375   12.7041 C.ar    1  UNL1       -0.0000
     16 C          63.0204   81.1586   11.4812 C.ar    1  UNL1       -0.0003
     17 C          63.1992   82.6476   11.5101 C.ar    1  UNL1       -0.0042
     18 C          64.0548   91.3526   13.2466 C.3     1  UNL1        0.0913
     19 C          64.8077   91.8469   12.0470 C.3     1  UNL1        0.0260
     20 C          65.9334   92.8232   12.2180 C.3     1  UNL1        0.0297
     21 C          66.8284   92.7332   13.4183 C.ar    1  UNL1       -0.0030
     22 C          66.3087   93.1180   14.7719 C.ar    1  UNL1       -0.0011
     23 C          67.2037   93.0281   15.9722 C.ar    1  UNL1        0.0204
     24 C          68.6183   92.5533   15.8193 C.ar    1  UNL1        0.0989
     25 N          69.1380   92.1685   14.4657 N.ar    1  UNL1       -0.2426
     26 C          68.2430   92.2585   13.2654 C.ar    1  UNL1        0.0946
@<TRIPOS>BOND
     1     1     2    1
     2     2    12    1
     3    12    13   ar
     4    13    14   ar
     5    14    15   ar
     6    15    16   ar
     7    16    17   ar
     8     2     3    1
     9     3     4    1
    10     4     5    1
    11     5     6    1
    12     6     7   am
    13     7     8    2
    14     7     9   am
    15     9    18    1
    16    18    19    1
    17    19    20    1
    18    20    21    1
    19    21    22   ar
    20    22    23   ar
    21    23    24   ar
    22    24    25   ar
    23    25    26   ar
    24     6    10    1
    25    10     2    1
    26    17    12   ar
    27    26    21   ar
    28     9    11    1
