@<TRIPOS>MOLECULE
*****
 30 33 0 0 0
SMALL
GASTEIGER

@<TRIPOS>ATOM
      1 N          63.4238   89.0863   13.0165 N.3     1  UNL1       -0.1490
      2 C          62.5619   89.1467   11.7903 C.3     1  UNL1        0.1409
      3 C          62.1129   87.8790   11.1260 C.ar    1  UNL1        0.0770
      4 C          61.2655   87.6266    9.9143 C.ar    1  UNL1        0.1148
      5 N          61.1546   86.1424    9.7274 N.ar    1  UNL1       -0.2226
      6 C          61.9335   85.4776   10.8235 C.ar    1  UNL1        0.1796
      7 N          62.5257   86.5509   11.6879 N.ar    1  UNL1       -0.2923
      8 C          63.3876   86.4906   12.9141 C.3     1  UNL1        0.2364
      9 S          63.8366   87.7583   13.5784 S.O2    1  UNL1        0.0629
     10 O          64.5103   88.6753   14.5557 O.2     1  UNL1       -0.1555
     11 O          64.4834   86.7487   14.4797 O.2     1  UNL1       -0.1555
     12 C          63.5505   90.5988   15.1252 C.3     1  UNL1        0.0240
     13 C          63.8729   90.3541   13.6808 C.3     1  UNL1        0.1019
     14 C          64.6443   91.3770   12.9008 C.ar    1  UNL1       -0.0061
     15 C          65.7704   92.1241   13.5518 C.ar    1  UNL1       -0.0021
     16 C          66.5418   93.1470   12.7717 C.ar    1  UNL1        0.0111
     17 C          66.1872   93.4228   11.3406 C.ar    1  UNL1        0.0577
     18 CL         66.9585   94.4457   10.5605 Cl      1  UNL1       -0.0822
     19 C          65.0611   92.6757   10.6895 C.ar    1  UNL1        0.0111
     20 C          64.2897   91.6528   11.4696 C.ar    1  UNL1       -0.0021
     21 C          63.8004   85.1625   13.4760 C.3     1  UNL1        0.0827
     22 C          62.7733   84.2523   14.0815 C.3     1  UNL1        0.1364
     23 O          61.8793   84.7537   15.1767 O.3     1  UNL1       -0.3799
     24 H          62.0950   85.6791   15.3719 H       1  UNL1        0.2108
     25 C          62.6403   82.8407   13.5919 C.ar    1  UNL1        0.0043
     26 C          63.2907   82.4291   12.3044 C.ar    1  UNL1       -0.0020
     27 C          63.1577   81.0176   11.8146 C.ar    1  UNL1       -0.0002
     28 C          62.3744   80.0176   12.6124 C.ar    1  UNL1       -0.0000
     29 C          61.7240   80.4292   13.8999 C.ar    1  UNL1       -0.0002
     30 C          61.8570   81.8407   14.3896 C.ar    1  UNL1       -0.0020
@<TRIPOS>BOND
     1    13    12    1
     2    13    14    1
     3    14    15   ar
     4    15    16   ar
     5    16    17   ar
     6    17    18    1
     7    17    19   ar
     8    19    20   ar
     9    13     1    1
    10     1     2    1
    11     2     3    1
    12     3     4   ar
    13     4     5   ar
    14     5     6   ar
    15     6     7   ar
    16     7     8    1
    17     8    21    1
    18    21    22    1
    19    22    23    1
    20    22    25    1
    21    25    26   ar
    22    26    27   ar
    23    27    28   ar
    24    28    29   ar
    25    29    30   ar
    26     8     9    1
    27     9    10    2
    28     9    11    2
    29    20    14   ar
    30     9     1    1
    31     7     3   ar
    32    30    25   ar
    33    23    24    1
@<TRIPOS>MOLECULE
*****
 30 33 0 0 0
SMALL
GASTEIGER

@<TRIPOS>ATOM
      1 N          62.2157   90.4603   11.1880 N.3     1  UNL1       -0.1490
      2 C          62.9788   91.4025   10.3048 C.3     1  UNL1        0.1409
      3 C          64.2744   91.9914   10.7788 C.ar    1  UNL1        0.0770
      4 C          65.2403   92.9413   10.1348 C.ar    1  UNL1        0.1148
      5 N          66.3697   93.1749   11.0938 N.ar    1  UNL1       -0.2226
      6 C          66.1019   92.3694   12.3305 C.ar    1  UNL1        0.1796
      7 N          64.8069   91.6379   12.1359 N.ar    1  UNL1       -0.2923
      8 C          64.0438   90.6957   13.0189 C.3     1  UNL1        0.2364
      9 S          62.7481   90.1069   12.5450 S.O2    1  UNL1        0.0629
     10 O          61.4851   89.2977   12.5420 O.2     1  UNL1       -0.1555
     11 O          62.8420   89.4725   13.9010 O.2     1  UNL1       -0.1555
     12 C          59.6178   90.4712   11.1551 C.3     1  UNL1        0.0240
     13 C          60.9200   89.8714   10.7140 C.3     1  UNL1        0.1019
     14 C          60.9266   88.6828    9.7990 C.ar    1  UNL1       -0.0061
     15 C          59.8122   88.4886    8.8139 C.ar    1  UNL1       -0.0021
     16 C          59.8189   87.2999    7.8989 C.ar    1  UNL1        0.0111
     17 C          60.9397   86.3057    7.9691 C.ar    1  UNL1        0.0577
     18 CL         60.9464   85.1170    7.0541 Cl      1  UNL1       -0.0822
     19 C          62.0541   86.5000    8.9543 C.ar    1  UNL1        0.0111
     20 C          62.0476   87.6886    9.8692 C.ar    1  UNL1       -0.0021
     21 C          64.5762   90.3423   14.3760 C.3     1  UNL1        0.0827
     22 C          64.9401   91.4279   15.3449 C.3     1  UNL1        0.1364
     23 O          63.9031   91.9788   16.2782 O.3     1  UNL1       -0.3799
     24 H          63.0583   91.5272   16.1257 H       1  UNL1        0.2108
     25 C          66.3412   91.9627   15.3806 C.ar    1  UNL1        0.0043
     26 C          66.6342   93.2514   16.0900 C.ar    1  UNL1       -0.0020
     27 C          68.0351   93.7862   16.1257 C.ar    1  UNL1       -0.0002
     28 C          69.1431   93.0323   15.4520 C.ar    1  UNL1       -0.0000
     29 C          68.8501   91.7434   14.7426 C.ar    1  UNL1       -0.0002
     30 C          67.4492   91.2087   14.7069 C.ar    1  UNL1       -0.0020
@<TRIPOS>BOND
     1    13    12    1
     2    13    14    1
     3    14    15   ar
     4    15    16   ar
     5    16    17   ar
     6    17    18    1
     7    17    19   ar
     8    19    20   ar
     9    13     1    1
    10     1     2    1
    11     2     3    1
    12     3     4   ar
    13     4     5   ar
    14     5     6   ar
    15     6     7   ar
    16     7     8    1
    17     8    21    1
    18    21    22    1
    19    22    23    1
    20    22    25    1
    21    25    26   ar
    22    26    27   ar
    23    27    28   ar
    24    28    29   ar
    25    29    30   ar
    26     8     9    1
    27     9    10    2
    28     9    11    2
    29    20    14   ar
    30     9     1    1
    31     7     3   ar
    32    30    25   ar
    33    23    24    1
@<TRIPOS>MOLECULE
*****
 30 33 0 0 0
SMALL
GASTEIGER

@<TRIPOS>ATOM
      1 N          64.0889   89.6502   14.5397 N.3     1  UNL1       -0.1490
      2 C          64.4284   88.3023   15.1038 C.3     1  UNL1        0.1409
      3 C          64.1194   87.0617   14.3194 C.ar    1  UNL1        0.0770
      4 C          64.3365   85.6072   14.6151 C.ar    1  UNL1        0.1148
      5 N          63.8224   84.8155   13.4494 N.ar    1  UNL1       -0.2226
      6 C          63.2875   85.7806   12.4333 C.ar    1  UNL1        0.1796
      7 N          63.4711   87.1689   12.9710 N.ar    1  UNL1       -0.2923
      8 C          63.1317   88.5167   12.4069 C.3     1  UNL1        0.2364
      9 S          63.4407   89.7574   13.1913 S.O2    1  UNL1        0.0629
     10 O          63.5359   91.2105   13.5507 O.2     1  UNL1       -0.1555
     11 O          62.8254   90.3692   11.9678 O.2     1  UNL1       -0.1555
     12 C          63.3443   91.5100   16.1941 C.3     1  UNL1        0.0240
     13 C          64.3979   90.8910   15.3241 C.3     1  UNL1        0.1019
     14 C          65.7603   91.5126   15.2385 C.ar    1  UNL1       -0.0061
     15 C          66.2198   92.4620   16.3050 C.ar    1  UNL1       -0.0021
     16 C          67.5823   93.0837   16.2193 C.ar    1  UNL1        0.0111
     17 C          68.4852   92.7558   15.0673 C.ar    1  UNL1        0.0577
     18 CL         69.8476   93.3774   14.9816 Cl      1  UNL1       -0.0822
     19 C          68.0256   91.8063   14.0008 C.ar    1  UNL1        0.0111
     20 C          66.6632   91.1847   14.0864 C.ar    1  UNL1       -0.0021
     21 C          62.4834   88.6239   11.0585 C.3     1  UNL1        0.0827
     22 C          61.3004   87.7642   10.7247 C.3     1  UNL1        0.1364
     23 O          60.0903   87.7768   11.6108 O.3     1  UNL1       -0.3799
     24 H          60.2363   88.3891   12.3488 H       1  UNL1        0.2108
     25 C          61.3276   86.8921    9.5046 C.ar    1  UNL1        0.0043
     26 C          62.5905   86.1799    9.1198 C.ar    1  UNL1       -0.0020
     27 C          62.6178   85.3077    7.8998 C.ar    1  UNL1       -0.0002
     28 C          61.3822   85.1477    7.0644 C.ar    1  UNL1       -0.0000
     29 C          60.1194   85.8599    7.4492 C.ar    1  UNL1       -0.0002
     30 C          60.0921   86.7320    8.6692 C.ar    1  UNL1       -0.0020
@<TRIPOS>BOND
     1    13    12    1
     2    13    14    1
     3    14    15   ar
     4    15    16   ar
     5    16    17   ar
     6    17    18    1
     7    17    19   ar
     8    19    20   ar
     9    13     1    1
    10     1     2    1
    11     2     3    1
    12     3     4   ar
    13     4     5   ar
    14     5     6   ar
    15     6     7   ar
    16     7     8    1
    17     8    21    1
    18    21    22    1
    19    22    23    1
    20    22    25    1
    21    25    26   ar
    22    26    27   ar
    23    27    28   ar
    24    28    29   ar
    25    29    30   ar
    26     8     9    1
    27     9    10    2
    28     9    11    2
    29    20    14   ar
    30     9     1    1
    31     7     3   ar
    32    30    25   ar
    33    23    24    1
@<TRIPOS>MOLECULE
*****
 30 33 0 0 0
SMALL
GASTEIGER

@<TRIPOS>ATOM
      1 N          62.5497   89.2182   11.7744 N.3     1  UNL1       -0.1490
      2 C          62.9093   89.1602   13.2295 C.3     1  UNL1        0.1409
      3 C          63.7888   90.2180   13.8274 C.ar    1  UNL1        0.0770
      4 C          64.3086   90.4221   15.2196 C.ar    1  UNL1        0.1148
      5 N          65.1497   91.6641   15.2228 N.ar    1  UNL1       -0.2226
      6 C          65.1498   92.2275   13.8326 C.ar    1  UNL1        0.1796
      7 N          64.3087   91.3337   12.9702 N.ar    1  UNL1       -0.2923
      8 C          63.9491   91.3917   11.5151 C.3     1  UNL1        0.2364
      9 S          63.0696   90.3339   10.9172 S.O2    1  UNL1        0.0629
     10 O          62.2747   89.5717    9.8987 O.2     1  UNL1       -0.1555
     11 O          63.3134   91.1849    9.7063 O.2     1  UNL1       -0.1555
     12 C          60.2307   88.4610   10.8804 C.3     1  UNL1        0.0240
     13 C          61.6701   88.1603   11.1764 C.3     1  UNL1        0.1019
     14 C          62.2300   86.8019   10.8746 C.ar    1  UNL1       -0.0061
     15 C          62.5452   85.8549   11.9943 C.ar    1  UNL1       -0.0021
     16 C          63.1051   84.4964   11.6924 C.ar    1  UNL1        0.0111
     17 C          63.3497   84.0850   10.2710 C.ar    1  UNL1        0.0577
     18 CL         63.9096   82.7265    9.9690 Cl      1  UNL1       -0.0822
     19 C          63.0345   85.0320    9.1512 C.ar    1  UNL1        0.0111
     20 C          62.4747   86.3905    9.4530 C.ar    1  UNL1       -0.0021
     21 C          64.4690   92.5074   10.6579 C.3     1  UNL1        0.0827
     22 C          65.9368   92.8159   10.6372 C.3     1  UNL1        0.1364
     23 O          66.9271   91.7801   11.0803 O.3     1  UNL1       -0.3799
     24 H          66.4559   90.9752   11.3465 H       1  UNL1        0.2108
     25 C          66.4142   94.1601   10.1732 C.ar    1  UNL1        0.0043
     26 C          67.1980   94.2791    8.8999 C.ar    1  UNL1       -0.0020
     27 C          67.6754   95.6233    8.4359 C.ar    1  UNL1       -0.0002
     28 C          67.3690   96.8485    9.2452 C.ar    1  UNL1       -0.0000
     29 C          66.5850   96.7294   10.5186 C.ar    1  UNL1       -0.0002
     30 C          66.1077   95.3853   10.9825 C.ar    1  UNL1       -0.0020
@<TRIPOS>BOND
     1    13    12    1
     2    13    14    1
     3    14    15   ar
     4    15    16   ar
     5    16    17   ar
     6    17    18    1
     7    17    19   ar
     8    19    20   ar
     9    13     1    1
    10     1     2    1
    11     2     3    1
    12     3     4   ar
    13     4     5   ar
    14     5     6   ar
    15     6     7   ar
    16     7     8    1
    17     8    21    1
    18    21    22    1
    19    22    23    1
    20    22    25    1
    21    25    26   ar
    22    26    27   ar
    23    27    28   ar
    24    28    29   ar
    25    29    30   ar
    26     8     9    1
    27     9    10    2
    28     9    11    2
    29    20    14   ar
    30     9     1    1
    31     7     3   ar
    32    30    25   ar
    33    23    24    1
@<TRIPOS>MOLECULE
*****
 30 33 0 0 0
SMALL
GASTEIGER

@<TRIPOS>ATOM
      1 N          63.4913   86.8302   13.1494 N.3     1  UNL1       -0.1490
      2 C          62.7113   86.7737   11.8693 C.3     1  UNL1        0.1409
      3 C          62.2946   88.0437   11.1884 C.ar    1  UNL1        0.0770
      4 C          61.5253   88.3001    9.9265 C.ar    1  UNL1        0.1148
      5 N          61.4131   89.7849    9.7458 N.ar    1  UNL1       -0.2226
      6 C          62.1131   90.4462   10.8959 C.ar    1  UNL1        0.1796
      7 N          62.6579   89.3700   11.7875 N.ar    1  UNL1       -0.2923
      8 C          63.4379   89.4264   13.0675 C.3     1  UNL1        0.2364
      9 S          63.8546   88.1564   13.7484 S.O2    1  UNL1        0.0629
     10 O          64.4720   87.2362   14.7593 O.2     1  UNL1       -0.1555
     11 O          64.4323   89.1631   14.6986 O.2     1  UNL1       -0.1555
     12 C          64.5962   85.6142   15.1620 C.3     1  UNL1        0.0240
     13 C          63.9080   85.5602   13.8303 C.3     1  UNL1        0.1019
     14 C          63.6365   84.2363   13.1795 C.ar    1  UNL1       -0.0061
     15 C          62.5576   83.3436   13.7171 C.ar    1  UNL1       -0.0021
     16 C          62.2861   82.0196   13.0662 C.ar    1  UNL1        0.0111
     17 C          63.0935   81.5885   11.8779 C.ar    1  UNL1        0.0577
     18 CL         62.8221   80.2646   11.2270 Cl      1  UNL1       -0.0822
     19 C          64.1725   82.4812   11.3404 C.ar    1  UNL1        0.0111
     20 C          64.4440   83.8051   11.9912 C.ar    1  UNL1       -0.0021
     21 C          63.8013   90.7527   13.6666 C.3     1  UNL1        0.0827
     22 C          64.9456   91.5419   13.1031 C.3     1  UNL1        0.1364
     23 O          64.9409   91.9421   11.6575 O.3     1  UNL1       -0.3799
     24 H          64.1326   91.6135   11.2337 H       1  UNL1        0.2108
     25 C          66.0947   91.9310   13.9854 C.ar    1  UNL1        0.0043
     26 C          67.4967   91.8862   13.4542 C.ar    1  UNL1       -0.0020
     27 C          68.6458   92.2753   14.3363 C.ar    1  UNL1       -0.0002
     28 C          68.3929   92.7092   15.7497 C.ar    1  UNL1       -0.0000
     29 C          66.9907   92.7540   16.2809 C.ar    1  UNL1       -0.0002
     30 C          65.8417   92.3649   15.3988 C.ar    1  UNL1       -0.0020
@<TRIPOS>BOND
     1    13    12    1
     2    13    14    1
     3    14    15   ar
     4    15    16   ar
     5    16    17   ar
     6    17    18    1
     7    17    19   ar
     8    19    20   ar
     9    13     1    1
    10     1     2    1
    11     2     3    1
    12     3     4   ar
    13     4     5   ar
    14     5     6   ar
    15     6     7   ar
    16     7     8    1
    17     8    21    1
    18    21    22    1
    19    22    23    1
    20    22    25    1
    21    25    26   ar
    22    26    27   ar
    23    27    28   ar
    24    28    29   ar
    25    29    30   ar
    26     8     9    1
    27     9    10    2
    28     9    11    2
    29    20    14   ar
    30     9     1    1
    31     7     3   ar
    32    30    25   ar
    33    23    24    1
@<TRIPOS>MOLECULE
*****
 30 33 0 0 0
SMALL
GASTEIGER

@<TRIPOS>ATOM
      1 N          62.9459   85.2141   13.1409 N.3     1  UNL1       -0.1490
      2 C          62.2220   85.6035   11.8862 C.3     1  UNL1        0.1409
      3 C          62.2709   87.0223   11.4017 C.ar    1  UNL1        0.0770
      4 C          61.6614   87.6970   10.2087 C.ar    1  UNL1        0.1148
      5 N          62.0576   89.1433   10.2416 N.ar    1  UNL1       -0.2226
      6 C          62.9119   89.3625   11.4549 C.ar    1  UNL1        0.1796
      7 N          63.0437   88.0516   12.1719 N.ar    1  UNL1       -0.2923
      8 C          63.7676   87.6622   13.4266 C.3     1  UNL1        0.2364
      9 S          63.7186   86.2434   13.9111 S.O2    1  UNL1        0.0629
     10 O          63.9683   85.0366   14.7663 O.2     1  UNL1       -0.1555
     11 O          64.5781   86.8536   14.9783 O.2     1  UNL1       -0.1555
     12 C          62.7910   83.5075   15.0938 C.3     1  UNL1        0.0240
     13 C          62.8970   83.7953   13.6255 C.3     1  UNL1        0.1019
     14 C          62.9540   82.6644   12.6417 C.ar    1  UNL1       -0.0061
     15 C          63.5555   82.8805   11.2847 C.ar    1  UNL1       -0.0021
     16 C          63.6126   81.7496   10.3009 C.ar    1  UNL1        0.0111
     17 C          63.0682   80.4027   10.6741 C.ar    1  UNL1        0.0577
     18 CL         63.1252   79.2717    9.6904 Cl      1  UNL1       -0.0822
     19 C          62.4667   80.1866   12.0312 C.ar    1  UNL1        0.0111
     20 C          62.4096   81.3175   13.0150 C.ar    1  UNL1       -0.0021
     21 C          64.5404   88.6915   14.1969 C.3     1  UNL1        0.0827
     22 C          63.9892   90.0771   14.3587 C.3     1  UNL1        0.1364
     23 O          62.5477   90.2729   14.7242 O.3     1  UNL1       -0.3799
     24 H          62.1175   89.4086   14.8176 H       1  UNL1        0.2108
     25 C          64.8797   91.2670   14.1551 C.ar    1  UNL1        0.0043
     26 C          65.6126   91.8633   15.3201 C.ar    1  UNL1       -0.0020
     27 C          66.5031   93.0531   15.1166 C.ar    1  UNL1       -0.0002
     28 C          66.6607   93.6466   13.7481 C.ar    1  UNL1       -0.0000
     29 C          65.9278   93.0502   12.5831 C.ar    1  UNL1       -0.0002
     30 C          65.0373   91.8605   12.7866 C.ar    1  UNL1       -0.0020
@<TRIPOS>BOND
     1    13    12    1
     2    13    14    1
     3    14    15   ar
     4    15    16   ar
     5    16    17   ar
     6    17    18    1
     7    17    19   ar
     8    19    20   ar
     9    13     1    1
    10     1     2    1
    11     2     3    1
    12     3     4   ar
    13     4     5   ar
    14     5     6   ar
    15     6     7   ar
    16     7     8    1
    17     8    21    1
    18    21    22    1
    19    22    23    1
    20    22    25    1
    21    25    26   ar
    22    26    27   ar
    23    27    28   ar
    24    28    29   ar
    25    29    30   ar
    26     8     9    1
    27     9    10    2
    28     9    11    2
    29    20    14   ar
    30     9     1    1
    31     7     3   ar
    32    30    25   ar
    33    23    24    1
@<TRIPOS>MOLECULE
*****
 30 33 0 0 0
SMALL
GASTEIGER

@<TRIPOS>ATOM
      1 N          62.4704   86.2924   11.7840 N.3     1  UNL1       -0.1490
      2 C          61.5640   85.9759   10.6314 C.3     1  UNL1        0.1409
      3 C          60.9015   87.0865    9.8714 C.ar    1  UNL1        0.0770
      4 C          59.9647   87.0815    8.6999 C.ar    1  UNL1        0.1148
      5 N          59.6296   88.5055    8.3684 N.ar    1  UNL1       -0.2226
      6 C          60.3592   89.3905    9.3350 C.ar    1  UNL1        0.1796
      7 N          61.1453   88.5135   10.2639 N.ar    1  UNL1       -0.2923
      8 C          62.0516   88.8300   11.4165 C.3     1  UNL1        0.2364
      9 S          62.7141   87.7194   12.1765 S.O2    1  UNL1        0.0629
     10 O          63.5638   87.0201   13.1959 O.2     1  UNL1       -0.1555
     11 O          63.2530   88.9036   12.9231 O.2     1  UNL1       -0.1555
     12 C          63.7914   85.4636   13.8621 C.3     1  UNL1        0.0240
     13 C          63.1329   85.1818   12.5441 C.3     1  UNL1        0.1019
     14 C          63.1370   83.7894   11.9862 C.ar    1  UNL1       -0.0061
     15 C          62.4240   82.6881   12.7133 C.ar    1  UNL1       -0.0021
     16 C          62.4281   81.2956   12.1552 C.ar    1  UNL1        0.0111
     17 C          63.1451   81.0047   10.8703 C.ar    1  UNL1        0.0577
     18 CL         63.1493   79.6124   10.3123 Cl      1  UNL1       -0.0822
     19 C          63.8581   82.1062   10.1432 C.ar    1  UNL1        0.0111
     20 C          63.8541   83.4985   10.7012 C.ar    1  UNL1       -0.0021
     21 C          62.2954   90.2571   11.8091 C.3     1  UNL1        0.0827
     22 C          63.1835   91.1251   10.9678 C.3     1  UNL1        0.1364
     23 O          62.8235   91.4042    9.5386 O.3     1  UNL1       -0.3799
     24 H          61.9940   90.9515    9.3198 H       1  UNL1        0.2108
     25 C          64.4315   91.7140   11.5557 C.ar    1  UNL1        0.0043
     26 C          65.4043   92.4413   10.6756 C.ar    1  UNL1       -0.0020
     27 C          66.6523   93.0303   11.2634 C.ar    1  UNL1       -0.0002
     28 C          66.9276   92.8919   12.7314 C.ar    1  UNL1       -0.0000
     29 C          65.9547   92.1646   13.6116 C.ar    1  UNL1       -0.0002
     30 C          64.7067   91.5757   13.0237 C.ar    1  UNL1       -0.0020
@<TRIPOS>BOND
     1    13    12    1
     2    13    14    1
     3    14    15   ar
     4    15    16   ar
     5    16    17   ar
     6    17    18    1
     7    17    19   ar
     8    19    20   ar
     9    13     1    1
    10     1     2    1
    11     2     3    1
    12     3     4   ar
    13     4     5   ar
    14     5     6   ar
    15     6     7   ar
    16     7     8    1
    17     8    21    1
    18    21    22    1
    19    22    23    1
    20    22    25    1
    21    25    26   ar
    22    26    27   ar
    23    27    28   ar
    24    28    29   ar
    25    29    30   ar
    26     8     9    1
    27     9    10    2
    28     9    11    2
    29    20    14   ar
    30     9     1    1
    31     7     3   ar
    32    30    25   ar
    33    23    24    1
@<TRIPOS>MOLECULE
*****
 30 33 0 0 0
SMALL
GASTEIGER

@<TRIPOS>ATOM
      1 N          61.9313   90.1321   11.7631 N.3     1  UNL1       -0.1490
      2 C          62.0518   89.7461   13.2076 C.3     1  UNL1        0.1409
      3 C          63.2797   90.1199   13.9838 C.ar    1  UNL1        0.0770
      4 C          63.6779   89.8784   15.4097 C.ar    1  UNL1        0.1148
      5 N          65.0314   90.4888   15.6226 N.ar    1  UNL1       -0.2226
      6 C          65.4698   91.1075   14.3283 C.ar    1  UNL1        0.1796
      7 N          64.3871   90.8795   13.3155 N.ar    1  UNL1       -0.2923
      8 C          64.2666   91.2654   11.8710 C.3     1  UNL1        0.2364
      9 S          63.0387   90.8916   11.0948 S.O2    1  UNL1        0.0629
     10 O          62.0797   90.7667    9.9482 O.2     1  UNL1       -0.1555
     11 O          63.8130   91.6078   10.0283 O.2     1  UNL1       -0.1555
     12 C          59.4312   90.5297   11.1786 C.3     1  UNL1        0.0240
     13 C          60.7033   89.7583   10.9868 C.3     1  UNL1        0.1019
     14 C          60.7475   88.6133   10.0189 C.ar    1  UNL1       -0.0061
     15 C          59.7953   88.5733    8.8606 C.ar    1  UNL1       -0.0021
     16 C          59.8395   87.4282    7.8926 C.ar    1  UNL1        0.0111
     17 C          60.8358   86.3232    8.0830 C.ar    1  UNL1        0.0577
     18 CL         60.8801   85.1781    7.1151 Cl      1  UNL1       -0.0822
     19 C          61.7881   86.3633    9.2414 C.ar    1  UNL1        0.0111
     20 C          61.7439   87.5083   10.2093 C.ar    1  UNL1       -0.0021
     21 C          65.3740   92.0250   11.2027 C.3     1  UNL1        0.0827
     22 C          65.7056   93.4174   11.6513 C.3     1  UNL1        0.1364
     23 O          65.4538   93.8275   13.0720 O.3     1  UNL1       -0.3799
     24 H          65.0775   93.0800   13.5625 H       1  UNL1        0.2108
     25 C          66.2889   94.3996   10.6791 C.ar    1  UNL1        0.0043
     26 C          66.9938   93.9090    9.4493 C.ar    1  UNL1       -0.0020
     27 C          67.5771   94.8911    8.4771 C.ar    1  UNL1       -0.0002
     28 C          67.4556   96.3638    8.7347 C.ar    1  UNL1       -0.0000
     29 C          66.7506   96.8544    9.9646 C.ar    1  UNL1       -0.0002
     30 C          66.1673   95.8723   10.9367 C.ar    1  UNL1       -0.0020
@<TRIPOS>BOND
     1    13    12    1
     2    13    14    1
     3    14    15   ar
     4    15    16   ar
     5    16    17   ar
     6    17    18    1
     7    17    19   ar
     8    19    20   ar
     9    13     1    1
    10     1     2    1
    11     2     3    1
    12     3     4   ar
    13     4     5   ar
    14     5     6   ar
    15     6     7   ar
    16     7     8    1
    17     8    21    1
    18    21    22    1
    19    22    23    1
    20    22    25    1
    21    25    26   ar
    22    26    27   ar
    23    27    28   ar
    24    28    29   ar
    25    29    30   ar
    26     8     9    1
    27     9    10    2
    28     9    11    2
    29    20    14   ar
    30     9     1    1
    31     7     3   ar
    32    30    25   ar
    33    23    24    1
@<TRIPOS>MOLECULE
*****
 30 33 0 0 0
SMALL
GASTEIGER

@<TRIPOS>ATOM
      1 N          63.5377   89.3021   14.1300 N.3     1  UNL1       -0.1490
      2 C          62.9008   89.7598   12.8513 C.3     1  UNL1        0.1409
      3 C          62.5948   88.7675   11.7688 C.ar    1  UNL1        0.0770
      4 C          61.9748   88.9220   10.4117 C.ar    1  UNL1        0.1148
      5 N          61.9224   87.5676    9.7692 N.ar    1  UNL1       -0.2226
      6 C          62.5100   86.5761   10.7292 C.ar    1  UNL1        0.1796
      7 N          62.9255   87.3177   11.9650 N.ar    1  UNL1       -0.2923
      8 C          63.5624   86.8601   13.2437 C.3     1  UNL1        0.2364
      9 S          63.8684   87.8523   14.3262 S.O2    1  UNL1        0.0629
     10 O          64.3471   88.4080   15.6346 O.2     1  UNL1       -0.1555
     11 O          64.3654   86.5955   14.9768 O.2     1  UNL1       -0.1555
     12 C          62.8760   90.4959   16.3408 C.3     1  UNL1        0.0240
     13 C          63.8438   90.2944   15.2125 C.3     1  UNL1        0.1019
     14 C          65.1175   91.0852   15.1667 C.ar    1  UNL1       -0.0061
     15 C          66.0698   90.9076   14.0215 C.ar    1  UNL1       -0.0021
     16 C          67.3436   91.6985   13.9758 C.ar    1  UNL1        0.0111
     17 C          67.6651   92.6668   15.0752 C.ar    1  UNL1        0.0577
     18 CL         68.9388   93.4577   15.0295 Cl      1  UNL1       -0.0822
     19 C          66.7127   92.8444   16.2205 C.ar    1  UNL1        0.0111
     20 C          65.4389   92.0536   16.2663 C.ar    1  UNL1       -0.0021
     21 C          63.8931   85.4102   13.4399 C.3     1  UNL1        0.0827
     22 C          62.8389   84.4593   13.9241 C.3     1  UNL1        0.1364
     23 O          61.8609   84.8953   14.9744 O.3     1  UNL1       -0.3799
     24 H          62.0479   85.8123   15.2297 H       1  UNL1        0.2108
     25 C          62.7629   83.0723   13.3579 C.ar    1  UNL1        0.0043
     26 C          62.3180   81.9318   14.2246 C.ar    1  UNL1       -0.0020
     27 C          62.2419   80.5448   13.6585 C.ar    1  UNL1       -0.0002
     28 C          62.6107   80.2983   12.2256 C.ar    1  UNL1       -0.0000
     29 C          63.0557   81.4390   11.3589 C.ar    1  UNL1       -0.0002
     30 C          63.1317   82.8258   11.9250 C.ar    1  UNL1       -0.0020
@<TRIPOS>BOND
     1    13    12    1
     2    13    14    1
     3    14    15   ar
     4    15    16   ar
     5    16    17   ar
     6    17    18    1
     7    17    19   ar
     8    19    20   ar
     9    13     1    1
    10     1     2    1
    11     2     3    1
    12     3     4   ar
    13     4     5   ar
    14     5     6   ar
    15     6     7   ar
    16     7     8    1
    17     8    21    1
    18    21    22    1
    19    22    23    1
    20    22    25    1
    21    25    26   ar
    22    26    27   ar
    23    27    28   ar
    24    28    29   ar
    25    29    30   ar
    26     8     9    1
    27     9    10    2
    28     9    11    2
    29    20    14   ar
    30     9     1    1
    31     7     3   ar
    32    30    25   ar
    33    23    24    1
