@<TRIPOS>MOLECULE
*****
 33 37 0 0 0
SMALL
GASTEIGER

@<TRIPOS>ATOM
      1 C          62.8479   89.5246   10.5368 C.2     1  UNL1        0.2506
      2 O          62.8378   90.7529    9.6758 O.2     1  UNL1       -0.2699
      3 N          63.4767   89.5679   11.8979 N.am    1  UNL1       -0.2740
      4 C          63.4869   88.3397   12.7588 C.3     1  UNL1        0.1095
      5 C          64.1158   88.3830   14.1200 C.3     1  UNL1        0.1622
      6 O          64.7344   89.6546   14.6202 O.3     1  UNL1       -0.3502
      7 C          64.7243   90.8829   13.7592 C.3     1  UNL1        0.1619
      8 C          64.0955   90.8396   12.3981 C.3     1  UNL1        0.1053
      9 C          64.0853   92.0679   11.5372 C.3     1  UNL1        0.0242
     10 C          63.2763   84.9960    8.0252 C.3     1  UNL1        0.0310
     11 C          62.4435   85.9887    8.7807 C.ar    1  UNL1       -0.0216
     12 C          60.9919   85.7098    9.0361 C.ar    1  UNL1       -0.0026
     13 C          60.1591   86.7025    9.7916 C.ar    1  UNL1        0.0207
     14 C          60.7777   87.9741   10.2919 C.ar    1  UNL1        0.1072
     15 C          62.2292   88.2530   10.0365 C.ar    1  UNL1        0.0726
     16 C          63.0621   87.2603    9.2810 C.ar    1  UNL1        0.0018
     17 N          59.9448   88.9667   11.0474 N.ar    1  UNL1       -0.1477
     18 N          59.2711   88.7298   12.3665 N.ar    1  UNL1       -0.1447
     19 C          58.5493   89.9873   12.7509 C.ar    1  UNL1        0.1446
     20 C          58.7769   91.0014   11.6694 C.ar    1  UNL1        0.1446
     21 N          59.6394   90.3707   10.6166 N.ar    1  UNL1       -0.1447
     22 C          62.8682   87.0680   12.2587 C.3     1  UNL1        0.0488
     23 C          63.2774   85.7517   12.8500 C.ar    1  UNL1       -0.0189
     24 C          63.9195   85.7053   14.2049 C.ar    1  UNL1       -0.0041
     25 C          64.3287   84.3889   14.7962 C.ar    1  UNL1        0.0013
     26 C          64.0958   83.1189   14.0326 C.ar    1  UNL1        0.0209
     27 C          63.4539   83.1653   12.6778 C.ar    1  UNL1        0.1026
     28 C          63.0446   84.4817   12.0865 C.ar    1  UNL1        0.0167
     29 N          63.2210   81.8953   11.9142 N.ar    1  UNL1       -0.1478
     30 N          63.3798   81.7151   10.4336 N.ar    1  UNL1       -0.1447
     31 C          63.0454   80.2910   10.1015 C.ar    1  UNL1        0.1446
     32 C          62.6801   79.5911   11.3770 C.ar    1  UNL1        0.1446
     33 N          62.7886   80.5827   12.4973 N.ar    1  UNL1       -0.1447
@<TRIPOS>BOND
     1    10    11    1
     2    11    12   ar
     3    12    13   ar
     4    13    14   ar
     5    14    17    1
     6    17    18   ar
     7    18    19   ar
     8    19    20   ar
     9    20    21   ar
    10    14    15   ar
    11    15     1    1
    12     1     2    2
    13     1     3   am
    14     3     4    1
    15     4    22    1
    16    22    23    1
    17    23    24   ar
    18    24    25   ar
    19    25    26   ar
    20    26    27   ar
    21    27    29    1
    22    29    30   ar
    23    30    31   ar
    24    31    32   ar
    25    32    33   ar
    26    27    28   ar
    27     4     5    1
    28     5     6    1
    29     6     7    1
    30     7     8    1
    31     8     9    1
    32    15    16   ar
    33    16    11   ar
    34    21    17   ar
    35     8     3    1
    36    28    23   ar
    37    33    29   ar
@<TRIPOS>MOLECULE
*****
 33 37 0 0 0
SMALL
GASTEIGER

@<TRIPOS>ATOM
      1 C          61.6722   86.1948   11.3837 C.2     1  UNL1        0.2506
      2 O          61.2112   84.8210   10.9965 O.2     1  UNL1       -0.2699
      3 N          62.7226   86.3632   12.4412 N.am    1  UNL1       -0.2740
      4 C          63.1836   87.7370   12.8284 C.3     1  UNL1        0.1095
      5 C          64.2341   87.9053   13.8859 C.3     1  UNL1        0.1622
      6 O          64.8235   86.6998   14.5562 O.3     1  UNL1       -0.3502
      7 C          64.3625   85.3259   14.1689 C.3     1  UNL1        0.1619
      8 C          63.3121   85.1576   13.1115 C.3     1  UNL1        0.1053
      9 C          62.8511   83.7837   12.7242 C.3     1  UNL1        0.0242
     10 C          59.3025   90.8087   11.6956 C.3     1  UNL1        0.0310
     11 C          59.8979   89.7073   10.8694 C.ar    1  UNL1       -0.0216
     12 C          59.9038   89.8115    9.3731 C.ar    1  UNL1       -0.0026
     13 C          60.4992   88.7101    8.5469 C.ar    1  UNL1        0.0207
     14 C          61.0887   87.5046    9.2171 C.ar    1  UNL1        0.1072
     15 C          61.0827   87.4004   10.7135 C.ar    1  UNL1        0.0726
     16 C          60.4873   88.5018   11.5396 C.ar    1  UNL1        0.0018
     17 N          61.6841   86.4032    8.3910 N.ar    1  UNL1       -0.1477
     18 N          63.0687   85.8442    8.5333 N.ar    1  UNL1       -0.1447
     19 C          63.2398   84.7630    7.5078 C.ar    1  UNL1        0.1446
     20 C          61.9609   84.6538    6.7316 C.ar    1  UNL1        0.1446
     21 N          60.9994   85.6675    7.2775 N.ar    1  UNL1       -0.1447
     22 C          62.5942   88.9426   12.1582 C.3     1  UNL1        0.0488
     23 C          63.4314   90.1699   11.9509 C.ar    1  UNL1       -0.0189
     24 C          63.3527   90.9213   10.6551 C.ar    1  UNL1       -0.0041
     25 C          64.1899   92.1486   10.4478 C.ar    1  UNL1        0.0013
     26 C          65.1057   92.6244   11.5364 C.ar    1  UNL1        0.0209
     27 C          65.1843   91.8729   12.8322 C.ar    1  UNL1        0.1026
     28 C          64.3472   90.6457   13.0394 C.ar    1  UNL1        0.0167
     29 N          66.1002   92.3487   13.9207 N.ar    1  UNL1       -0.1478
     30 N          65.7370   92.5214   15.3658 N.ar    1  UNL1       -0.1447
     31 C          66.9523   93.0148   16.0935 C.ar    1  UNL1        0.1446
     32 C          68.0667   93.1470   15.0981 C.ar    1  UNL1        0.1446
     33 N          67.5400   92.7354   13.7552 N.ar    1  UNL1       -0.1447
@<TRIPOS>BOND
     1    10    11    1
     2    11    12   ar
     3    12    13   ar
     4    13    14   ar
     5    14    17    1
     6    17    18   ar
     7    18    19   ar
     8    19    20   ar
     9    20    21   ar
    10    14    15   ar
    11    15     1    1
    12     1     2    2
    13     1     3   am
    14     3     4    1
    15     4    22    1
    16    22    23    1
    17    23    24   ar
    18    24    25   ar
    19    25    26   ar
    20    26    27   ar
    21    27    29    1
    22    29    30   ar
    23    30    31   ar
    24    31    32   ar
    25    32    33   ar
    26    27    28   ar
    27     4     5    1
    28     5     6    1
    29     6     7    1
    30     7     8    1
    31     8     9    1
    32    15    16   ar
    33    16    11   ar
    34    21    17   ar
    35     8     3    1
    36    28    23   ar
    37    33    29   ar
@<TRIPOS>MOLECULE
*****
 33 37 0 0 0
SMALL
GASTEIGER

@<TRIPOS>ATOM
      1 C          62.7794   88.9321   10.8875 C.2     1  UNL1        0.2506
      2 O          62.9877   90.3578   10.4705 O.2     1  UNL1       -0.2699
      3 N          63.3110   88.4507   12.2049 N.am    1  UNL1       -0.2740
      4 C          63.1027   87.0249   12.6219 C.3     1  UNL1        0.1095
      5 C          63.6344   86.5435   13.9393 C.3     1  UNL1        0.1622
      6 O          64.3744   87.4878   14.8397 O.3     1  UNL1       -0.3502
      7 C          64.5827   88.9135   14.4227 C.3     1  UNL1        0.1619
      8 C          64.0511   89.3950   13.1053 C.3     1  UNL1        0.1053
      9 C          64.2594   90.8207   12.6883 C.3     1  UNL1        0.0242
     10 C          62.8189   85.1375    7.3379 C.3     1  UNL1        0.0310
     11 C          62.0592   86.0905    8.2123 C.ar    1  UNL1       -0.0216
     12 C          60.5594   86.0993    8.1862 C.ar    1  UNL1       -0.0026
     13 C          59.7997   87.0523    9.0606 C.ar    1  UNL1        0.0207
     14 C          60.5396   87.9966    9.9610 C.ar    1  UNL1        0.1072
     15 C          62.0393   87.9878    9.9871 C.ar    1  UNL1        0.0726
     16 C          62.7991   87.0348    9.1127 C.ar    1  UNL1        0.0018
     17 N          59.7799   88.9496   10.8354 N.ar    1  UNL1       -0.1477
     18 N          59.5387   90.4031   10.5541 N.ar    1  UNL1       -0.1447
     19 C          58.7376   90.9683   11.6894 C.ar    1  UNL1        0.1446
     20 C          58.4837   89.8641   12.6724 C.ar    1  UNL1        0.1446
     21 N          59.1278   88.6165   12.1445 N.ar    1  UNL1       -0.1447
     22 C          62.3627   86.0806   11.7215 C.3     1  UNL1        0.0488
     23 C          62.8473   84.6712   11.5519 C.ar    1  UNL1       -0.0189
     24 C          63.9654   84.3722   10.5977 C.ar    1  UNL1       -0.0041
     25 C          64.4500   82.9628   10.4282 C.ar    1  UNL1        0.0013
     26 C          63.8164   81.8524   11.2128 C.ar    1  UNL1        0.0209
     27 C          62.6983   82.1514   12.1669 C.ar    1  UNL1        0.1026
     28 C          62.2137   83.5608   12.3365 C.ar    1  UNL1        0.0167
     29 N          62.0647   81.0410   12.9516 N.ar    1  UNL1       -0.1478
     30 N          60.8582   81.1623   13.8345 N.ar    1  UNL1       -0.1447
     31 C          60.5742   79.8106   14.4196 C.ar    1  UNL1        0.1446
     32 C          61.6052   78.8539   13.8982 C.ar    1  UNL1        0.1446
     33 N          62.5264   79.6143   12.9908 N.ar    1  UNL1       -0.1447
@<TRIPOS>BOND
     1    10    11    1
     2    11    12   ar
     3    12    13   ar
     4    13    14   ar
     5    14    17    1
     6    17    18   ar
     7    18    19   ar
     8    19    20   ar
     9    20    21   ar
    10    14    15   ar
    11    15     1    1
    12     1     2    2
    13     1     3   am
    14     3     4    1
    15     4    22    1
    16    22    23    1
    17    23    24   ar
    18    24    25   ar
    19    25    26   ar
    20    26    27   ar
    21    27    29    1
    22    29    30   ar
    23    30    31   ar
    24    31    32   ar
    25    32    33   ar
    26    27    28   ar
    27     4     5    1
    28     5     6    1
    29     6     7    1
    30     7     8    1
    31     8     9    1
    32    15    16   ar
    33    16    11   ar
    34    21    17   ar
    35     8     3    1
    36    28    23   ar
    37    33    29   ar
@<TRIPOS>MOLECULE
*****
 33 37 0 0 0
SMALL
GASTEIGER

@<TRIPOS>ATOM
      1 C          64.0361   83.8288   12.1795 C.2     1  UNL1        0.2506
      2 O          64.8885   82.5961   12.2411 O.2     1  UNL1       -0.2699
      3 N          63.4776   84.2896   10.8659 N.am    1  UNL1       -0.2740
      4 C          62.6252   85.5223   10.8043 C.3     1  UNL1        0.1095
      5 C          62.0666   85.9831    9.4906 C.3     1  UNL1        0.1622
      6 O          62.3605   85.2111    8.2385 O.3     1  UNL1       -0.3502
      7 C          63.2129   83.9784    8.3001 C.3     1  UNL1        0.1619
      8 C          63.7714   83.5176    9.6137 C.3     1  UNL1        0.1053
      9 C          64.6238   82.2849    9.6753 C.3     1  UNL1        0.0242
     10 C          64.5017   88.1631   15.0075 C.3     1  UNL1        0.0310
     11 C          63.9751   86.7679   14.8456 C.ar    1  UNL1       -0.0216
     12 C          63.1547   86.1447   15.9358 C.ar    1  UNL1       -0.0026
     13 C          62.6280   84.7496   15.7739 C.ar    1  UNL1        0.0207
     14 C          62.9218   83.9776   14.5218 C.ar    1  UNL1        0.1072
     15 C          63.7423   84.6008   13.4317 C.ar    1  UNL1        0.0726
     16 C          64.2689   85.9959   13.5936 C.ar    1  UNL1        0.0018
     17 N          62.3952   82.5825   14.3599 N.ar    1  UNL1       -0.1477
     18 N          60.9530   82.1953   14.2182 N.ar    1  UNL1       -0.1447
     19 C          60.8847   80.7031   14.0820 C.ar    1  UNL1        0.1446
     20 C          62.2848   80.1679   14.1396 C.ar    1  UNL1        0.1446
     21 N          63.2183   81.3294   14.3113 N.ar    1  UNL1       -0.1447
     22 C          62.3313   86.2943   12.0563 C.3     1  UNL1        0.0488
     23 C          61.9759   87.7492   11.9744 C.ar    1  UNL1       -0.0189
     24 C          60.5365   88.1675   11.9153 C.ar    1  UNL1       -0.0041
     25 C          60.1810   89.6224   11.8333 C.ar    1  UNL1        0.0013
     26 C          61.2649   90.6592   11.8104 C.ar    1  UNL1        0.0209
     27 C          62.7042   90.2409   11.8695 C.ar    1  UNL1        0.1026
     28 C          63.0597   88.7860   11.9515 C.ar    1  UNL1        0.0167
     29 N          63.7881   91.2776   11.8466 N.ar    1  UNL1       -0.1478
     30 N          64.3020   91.9892   10.6302 N.ar    1  UNL1       -0.1447
     31 C          65.3799   92.9361   11.0679 C.ar    1  UNL1        0.1446
     32 C          65.5321   92.8098   12.5549 C.ar    1  UNL1        0.1446
     33 N          64.5483   91.7847   13.0361 N.ar    1  UNL1       -0.1447
@<TRIPOS>BOND
     1    10    11    1
     2    11    12   ar
     3    12    13   ar
     4    13    14   ar
     5    14    17    1
     6    17    18   ar
     7    18    19   ar
     8    19    20   ar
     9    20    21   ar
    10    14    15   ar
    11    15     1    1
    12     1     2    2
    13     1     3   am
    14     3     4    1
    15     4    22    1
    16    22    23    1
    17    23    24   ar
    18    24    25   ar
    19    25    26   ar
    20    26    27   ar
    21    27    29    1
    22    29    30   ar
    23    30    31   ar
    24    31    32   ar
    25    32    33   ar
    26    27    28   ar
    27     4     5    1
    28     5     6    1
    29     6     7    1
    30     7     8    1
    31     8     9    1
    32    15    16   ar
    33    16    11   ar
    34    21    17   ar
    35     8     3    1
    36    28    23   ar
    37    33    29   ar
@<TRIPOS>MOLECULE
*****
 33 37 0 0 0
SMALL
GASTEIGER

@<TRIPOS>ATOM
      1 C          63.2230   90.3257   14.4992 C.2     1  UNL1        0.2506
      2 O          63.1446   91.4334   15.5077 O.2     1  UNL1       -0.2699
      3 N          63.3628   88.9039   14.9562 N.am    1  UNL1       -0.2740
      4 C          63.4412   87.7963   13.9477 C.3     1  UNL1        0.1095
      5 C          63.5810   86.3744   14.4048 C.3     1  UNL1        0.1622
      6 O          63.6423   86.0602   15.8702 O.3     1  UNL1       -0.3502
      7 C          63.5639   87.1679   16.8786 C.3     1  UNL1        0.1619
      8 C          63.4241   88.5897   16.4217 C.3     1  UNL1        0.1053
      9 C          63.3457   89.6973   17.4301 C.3     1  UNL1        0.0242
     10 C          60.6957   90.1549    9.9623 C.3     1  UNL1        0.0310
     11 C          61.8980   90.5545   10.7653 C.ar    1  UNL1       -0.0216
     12 C          63.0388   91.2684   10.1029 C.ar    1  UNL1       -0.0026
     13 C          64.2411   91.6680   10.9059 C.ar    1  UNL1        0.0207
     14 C          64.3025   91.3538   12.3713 C.ar    1  UNL1        0.1072
     15 C          63.1616   90.6400   13.0337 C.ar    1  UNL1        0.0726
     16 C          61.9594   90.2403   12.2307 C.ar    1  UNL1        0.0018
     17 N          65.5048   91.7534   13.1744 N.ar    1  UNL1       -0.1477
     18 N          66.1809   93.0920   13.1429 N.ar    1  UNL1       -0.1447
     19 C          67.3360   93.0506   14.0989 C.ar    1  UNL1        0.1446
     20 C          67.3738   91.6863   14.7213 C.ar    1  UNL1        0.1446
     21 N          66.2420   90.8847   14.1499 N.ar    1  UNL1       -0.1447
     22 C          63.3799   88.1105   12.4823 C.3     1  UNL1        0.0488
     23 C          63.0180   87.0366   11.4995 C.ar    1  UNL1       -0.0189
     24 C          62.5846   87.4052   10.1116 C.ar    1  UNL1       -0.0041
     25 C          62.2228   86.3313    9.1288 C.ar    1  UNL1        0.0013
     26 C          62.2944   84.8888    9.5340 C.ar    1  UNL1        0.0209
     27 C          62.7277   84.5202   10.9219 C.ar    1  UNL1        0.1026
     28 C          63.0896   85.5941   11.9047 C.ar    1  UNL1        0.0167
     29 N          62.7993   83.0777   11.3271 N.ar    1  UNL1       -0.1478
     30 N          62.4184   82.5179   12.6655 N.ar    1  UNL1       -0.1447
     31 C          62.6480   81.0360   12.6306 C.ar    1  UNL1        0.1446
     32 C          63.1708   80.6799   11.2704 C.ar    1  UNL1        0.1446
     33 N          63.2643   81.9418   10.4648 N.ar    1  UNL1       -0.1447
@<TRIPOS>BOND
     1    10    11    1
     2    11    12   ar
     3    12    13   ar
     4    13    14   ar
     5    14    17    1
     6    17    18   ar
     7    18    19   ar
     8    19    20   ar
     9    20    21   ar
    10    14    15   ar
    11    15     1    1
    12     1     2    2
    13     1     3   am
    14     3     4    1
    15     4    22    1
    16    22    23    1
    17    23    24   ar
    18    24    25   ar
    19    25    26   ar
    20    26    27   ar
    21    27    29    1
    22    29    30   ar
    23    30    31   ar
    24    31    32   ar
    25    32    33   ar
    26    27    28   ar
    27     4     5    1
    28     5     6    1
    29     6     7    1
    30     7     8    1
    31     8     9    1
    32    15    16   ar
    33    16    11   ar
    34    21    17   ar
    35     8     3    1
    36    28    23   ar
    37    33    29   ar
@<TRIPOS>MOLECULE
*****
 33 37 0 0 0
SMALL
GASTEIGER

@<TRIPOS>ATOM
      1 C          60.9350   89.7585    9.6225 C.2     1  UNL1        0.2506
      2 O          59.9937   90.6806    8.9058 O.2     1  UNL1       -0.2699
      3 N          60.9346   88.2922    9.3063 N.am    1  UNL1       -0.2740
      4 C          61.8759   87.3702   10.0231 C.3     1  UNL1        0.1095
      5 C          61.8754   85.9038    9.7068 C.3     1  UNL1        0.1622
      6 O          60.9338   85.3596    8.6738 O.3     1  UNL1       -0.3502
      7 C          59.9925   86.2817    7.9571 C.3     1  UNL1        0.1619
      8 C          59.9928   87.7480    8.2733 C.3     1  UNL1        0.1053
      9 C          59.0515   88.6701    7.5566 C.3     1  UNL1        0.0242
     10 C          65.4531   92.0118   10.8510 C.3     1  UNL1        0.0310
     11 C          64.1357   91.4294   11.2697 C.ar    1  UNL1       -0.0216
     12 C          63.7601   91.3912   12.7214 C.ar    1  UNL1       -0.0026
     13 C          62.4427   90.8088   13.1401 C.ar    1  UNL1        0.0207
     14 C          61.5010   90.2645   12.1072 C.ar    1  UNL1        0.1072
     15 C          61.8767   90.3027   10.6556 C.ar    1  UNL1        0.0726
     16 C          63.1940   90.8852   10.2368 C.ar    1  UNL1        0.0018
     17 N          60.1837   89.6821   12.5260 N.ar    1  UNL1       -0.1477
     18 N          59.8855   89.0346   13.8458 N.ar    1  UNL1       -0.1447
     19 C          58.4508   88.5972   13.8339 C.ar    1  UNL1        0.1446
     20 C          57.8621   88.9744   12.5068 C.ar    1  UNL1        0.1446
     21 N          58.9331   89.6449   11.6985 N.ar    1  UNL1       -0.1447
     22 C          62.8176   87.9143   11.0560 C.3     1  UNL1        0.0488
     23 C          63.1881   87.0805   12.2466 C.ar    1  UNL1       -0.0189
     24 C          63.9055   87.7057   13.4061 C.ar    1  UNL1       -0.0041
     25 C          64.2761   86.8719   14.5967 C.ar    1  UNL1        0.0013
     26 C          63.9292   85.4129   14.6277 C.ar    1  UNL1        0.0209
     27 C          63.2118   84.7877   13.4682 C.ar    1  UNL1        0.1026
     28 C          62.8413   85.6215   12.2776 C.ar    1  UNL1        0.0167
     29 N          62.8650   83.3286   13.4992 N.ar    1  UNL1       -0.1478
     30 N          63.1719   82.3264   12.4263 N.ar    1  UNL1       -0.1447
     31 C          62.6469   80.9940   12.8726 C.ar    1  UNL1        0.1446
     32 C          62.0155   81.1728   14.2214 C.ar    1  UNL1        0.1446
     33 N          62.1502   82.6158   14.6087 N.ar    1  UNL1       -0.1447
@<TRIPOS>BOND
     1    10    11    1
     2    11    12   ar
     3    12    13   ar
     4    13    14   ar
     5    14    17    1
     6    17    18   ar
     7    18    19   ar
     8    19    20   ar
     9    20    21   ar
    10    14    15   ar
    11    15     1    1
    12     1     2    2
    13     1     3   am
    14     3     4    1
    15     4    22    1
    16    22    23    1
    17    23    24   ar
    18    24    25   ar
    19    25    26   ar
    20    26    27   ar
    21    27    29    1
    22    29    30   ar
    23    30    31   ar
    24    31    32   ar
    25    32    33   ar
    26    27    28   ar
    27     4     5    1
    28     5     6    1
    29     6     7    1
    30     7     8    1
    31     8     9    1
    32    15    16   ar
    33    16    11   ar
    34    21    17   ar
    35     8     3    1
    36    28    23   ar
    37    33    29   ar
@<TRIPOS>MOLECULE
*****
 33 37 0 0 0
SMALL
GASTEIGER

@<TRIPOS>ATOM
      1 C          61.8517   90.0073   12.2006 C.2     1  UNL1        0.2506
      2 O          61.0092   91.1951   11.8409 O.2     1  UNL1       -0.2699
      3 N          61.8144   88.7750   11.3463 N.am    1  UNL1       -0.2740
      4 C          62.6569   87.5872   11.7059 C.3     1  UNL1        0.1095
      5 C          62.6196   86.3549   10.8515 C.3     1  UNL1        0.1622
      6 O          61.7397   86.3103    9.6375 O.3     1  UNL1       -0.3502
      7 C          60.8972   87.4981    9.2778 C.3     1  UNL1        0.1619
      8 C          60.9346   88.7304   10.1322 C.3     1  UNL1        0.1053
      9 C          60.0921   89.9182    9.7725 C.3     1  UNL1        0.0242
     10 C          62.8230   88.6028   17.1082 C.3     1  UNL1        0.0310
     11 C          63.2172   89.3496   15.8685 C.ar    1  UNL1       -0.0216
     12 C          64.4911   90.1410   15.8428 C.ar    1  UNL1       -0.0026
     13 C          64.8853   90.8878   14.6031 C.ar    1  UNL1        0.0207
     14 C          64.0056   90.8433   13.3891 C.ar    1  UNL1        0.1072
     15 C          62.7316   90.0519   13.4147 C.ar    1  UNL1        0.0726
     16 C          62.3374   89.3051   14.6544 C.ar    1  UNL1        0.0018
     17 N          64.3997   91.5901   12.1494 N.ar    1  UNL1       -0.1477
     18 N          63.8935   91.3257   10.7623 N.ar    1  UNL1       -0.1447
     19 C          64.5503   92.3047    9.8347 C.ar    1  UNL1        0.1446
     20 C          65.4624   93.1740   10.6485 C.ar    1  UNL1        0.1446
     21 N          65.3694   92.7324   12.0790 N.ar    1  UNL1       -0.1447
     22 C          63.5367   87.6317   12.9200 C.3     1  UNL1        0.0488
     23 C          63.8280   86.3728   13.6818 C.ar    1  UNL1       -0.0189
     24 C          64.5756   86.4381   14.9806 C.ar    1  UNL1       -0.0041
     25 C          64.8668   85.1792   15.7424 C.ar    1  UNL1        0.0013
     26 C          64.4104   83.8550   15.2054 C.ar    1  UNL1        0.0209
     27 C          63.6628   83.7898   13.9066 C.ar    1  UNL1        0.1026
     28 C          63.3716   85.0487   13.1448 C.ar    1  UNL1        0.0167
     29 N          63.2063   82.4656   13.3696 N.ar    1  UNL1       -0.1478
     30 N          63.2528   82.0329   11.9342 N.ar    1  UNL1       -0.1447
     31 C          62.6985   80.6416   11.8512 C.ar    1  UNL1        0.1446
     32 C          62.3094   80.2144   13.2355 C.ar    1  UNL1        0.1446
     33 N          62.6232   81.3418   14.1740 N.ar    1  UNL1       -0.1447
@<TRIPOS>BOND
     1    10    11    1
     2    11    12   ar
     3    12    13   ar
     4    13    14   ar
     5    14    17    1
     6    17    18   ar
     7    18    19   ar
     8    19    20   ar
     9    20    21   ar
    10    14    15   ar
    11    15     1    1
    12     1     2    2
    13     1     3   am
    14     3     4    1
    15     4    22    1
    16    22    23    1
    17    23    24   ar
    18    24    25   ar
    19    25    26   ar
    20    26    27   ar
    21    27    29    1
    22    29    30   ar
    23    30    31   ar
    24    31    32   ar
    25    32    33   ar
    26    27    28   ar
    27     4     5    1
    28     5     6    1
    29     6     7    1
    30     7     8    1
    31     8     9    1
    32    15    16   ar
    33    16    11   ar
    34    21    17   ar
    35     8     3    1
    36    28    23   ar
    37    33    29   ar
@<TRIPOS>MOLECULE
*****
 33 37 0 0 0
SMALL
GASTEIGER

@<TRIPOS>ATOM
      1 C          61.8559   85.6287   11.3681 C.2     1  UNL1        0.2506
      2 O          61.2751   84.3820   10.7695 O.2     1  UNL1       -0.2699
      3 N          62.9001   85.5298   12.4404 N.am    1  UNL1       -0.2740
      4 C          63.4809   86.7765   13.0390 C.3     1  UNL1        0.1095
      5 C          64.5252   86.6775   14.1113 C.3     1  UNL1        0.1622
      6 O          64.9886   85.3319   14.5850 O.3     1  UNL1       -0.3502
      7 C          64.4078   84.0851   13.9864 C.3     1  UNL1        0.1619
      8 C          63.3636   84.1841   12.9141 C.3     1  UNL1        0.1053
      9 C          62.7828   82.9373   12.3156 C.3     1  UNL1        0.0242
     10 C          60.0024   90.3712   12.4043 C.3     1  UNL1        0.0310
     11 C          60.4657   89.3456   11.4125 C.ar    1  UNL1       -0.0216
     12 C          60.4656   89.6657    9.9471 C.ar    1  UNL1       -0.0026
     13 C          60.9289   88.6401    8.9553 C.ar    1  UNL1        0.0207
     14 C          61.3923   87.2945    9.4290 C.ar    1  UNL1        0.1072
     15 C          61.3925   86.9744   10.8944 C.ar    1  UNL1        0.0726
     16 C          60.9292   88.0000   11.8862 C.ar    1  UNL1        0.0018
     17 N          61.8556   86.2689    8.4372 N.ar    1  UNL1       -0.1477
     18 N          63.2267   85.6643    8.3695 N.ar    1  UNL1       -0.1447
     19 C          63.2476   84.6896    7.2295 C.ar    1  UNL1        0.1446
     20 C          61.8895   84.6919    6.5926 C.ar    1  UNL1        0.1446
     21 N          61.0292   85.6680    7.3391 N.ar    1  UNL1       -0.1447
     22 C          63.0175   88.1222   12.5653 C.3     1  UNL1        0.0488
     23 C          63.5924   89.3689   13.1696 C.ar    1  UNL1       -0.0189
     24 C          63.5633   89.5639   14.6567 C.ar    1  UNL1       -0.0041
     25 C          64.1383   90.8106   15.2609 C.ar    1  UNL1        0.0013
     26 C          64.7423   91.8623   14.3782 C.ar    1  UNL1        0.0209
     27 C          64.7714   91.6673   12.8912 C.ar    1  UNL1        0.1026
     28 C          64.1964   90.4205   12.2869 C.ar    1  UNL1        0.0167
     29 N          65.3754   92.7189   12.0085 N.ar    1  UNL1       -0.1478
     30 N          65.3819   92.7138   10.5085 N.ar    1  UNL1       -0.1447
     31 C          66.0895   93.9520   10.0438 C.ar    1  UNL1        0.1446
     32 C          66.5203   94.7226   11.2565 C.ar    1  UNL1        0.1446
     33 N          66.0789   93.9604   12.4709 N.ar    1  UNL1       -0.1447
@<TRIPOS>BOND
     1    10    11    1
     2    11    12   ar
     3    12    13   ar
     4    13    14   ar
     5    14    17    1
     6    17    18   ar
     7    18    19   ar
     8    19    20   ar
     9    20    21   ar
    10    14    15   ar
    11    15     1    1
    12     1     2    2
    13     1     3   am
    14     3     4    1
    15     4    22    1
    16    22    23    1
    17    23    24   ar
    18    24    25   ar
    19    25    26   ar
    20    26    27   ar
    21    27    29    1
    22    29    30   ar
    23    30    31   ar
    24    31    32   ar
    25    32    33   ar
    26    27    28   ar
    27     4     5    1
    28     5     6    1
    29     6     7    1
    30     7     8    1
    31     8     9    1
    32    15    16   ar
    33    16    11   ar
    34    21    17   ar
    35     8     3    1
    36    28    23   ar
    37    33    29   ar
