@<TRIPOS>MOLECULE
*****
 46 49 0 0 0
SMALL
GASTEIGER

@<TRIPOS>ATOM
      1 C          63.2357   88.1024   13.5827 C.ar    1  UNL1        0.0703
      2 C          63.9612   86.7993   13.7425 C.ar    1  UNL1        0.0465
      3 C          65.0977   86.6879   14.7151 C.3     1  UNL1        0.0503
      4 N          63.5502   85.6075   12.9296 N.ar    1  UNL1       -0.2806
      5 C          62.4137   85.7188   11.9570 C.ar    1  UNL1        0.3338
      6 O          62.0601   85.0081   11.3754 O.2     1  UNL1       -0.2462
      7 N          61.6882   87.0220   11.7973 N.ar    1  UNL1       -0.2470
      8 C          62.0992   88.2137   12.6101 C.ar    1  UNL1        0.2654
      9 O          61.6115   89.6291   12.7045 O.2     1  UNL1       -0.2668
     10 C          64.7995   91.6167   14.5595 C.ar    1  UNL1        0.1660
     11 C          64.4687   91.6778   16.0212 C.ar    1  UNL1        0.0392
     12 C          63.7269   90.5470   16.6702 C.ar    1  UNL1        0.0033
     13 C          63.3159   89.3553   15.8574 C.ar    1  UNL1        0.0026
     14 C          63.6467   89.2942   14.3956 C.ar    1  UNL1        0.0362
     15 C          64.3885   90.4250   13.7467 C.ar    1  UNL1        0.1739
     16 F          64.7194   90.3639   12.2848 F       1  UNL1       -0.2010
     17 C          66.7305   93.3545   14.5940 C.3     1  UNL1        0.2526
     18 O          65.5413   92.7475   13.9105 O.3     1  UNL1       -0.4692
     19 C          64.2757   84.3044   13.0894 C.3     1  UNL1        0.1391
     20 C          63.5021   83.0244   13.2033 C.ar    1  UNL1        0.0319
     21 C          63.6021   81.9888   12.1227 C.ar    1  UNL1        0.1379
     22 F          64.1400   82.0411   11.3002 F       1  UNL1       -0.2044
     23 C          62.8284   80.7088   12.2366 C.ar    1  UNL1        0.0294
     24 C          61.9547   80.4643   13.4311 C.ar    1  UNL1        0.0022
     25 C          61.8547   81.4998   14.5117 C.ar    1  UNL1        0.0037
     26 C          62.6283   82.7798   14.3978 C.ar    1  UNL1        0.0714
     27 C          62.5283   83.8153   15.4784 C.3     1  UNL1        0.4184
     28 F          62.4282   84.8509   16.5590 F       1  UNL1       -0.1659
     29 F          61.2434   84.3113   14.8842 F       1  UNL1       -0.1659
     30 F          63.8132   83.3194   16.0726 F       1  UNL1       -0.1659
     31 C          60.5518   87.1334   10.8246 C.3     1  UNL1        0.1339
     32 C          60.8202   87.5076    9.3971 C.3     1  UNL1        0.1033
     33 C          61.2473   86.4582    8.4142 C.ar    1  UNL1       -0.0059
     34 C          60.2466   85.8670    7.4661 C.ar    1  UNL1       -0.0029
     35 C          60.6736   84.8175    6.4831 C.ar    1  UNL1       -0.0003
     36 C          62.1014   84.3592    6.4483 C.ar    1  UNL1       -0.0000
     37 C          63.1023   84.9504    7.3964 C.ar    1  UNL1       -0.0003
     38 C          62.6752   85.9998    8.3794 C.ar    1  UNL1       -0.0029
     39 N          60.6616   88.9315    8.9525 N.3     1  UNL1       -0.2675
     40 C          61.7101   89.9466    9.2991 C.3     1  UNL1        0.0899
     41 C          59.4545   89.3401    8.1613 C.3     1  UNL1        0.0728
     42 C          59.4638   89.2248    6.6658 C.3     1  UNL1        0.0232
     43 C          59.6718   90.4465    5.8207 C.3     1  UNL1        0.0431
     44 C          58.4900   91.1816    5.2613 C.2     1  UNL1        0.0504
     45 O          58.6991   92.3622    4.3598 O.co2   1  UNL1       -0.5492
     46 O          57.0046   91.0172    5.3891 O.co2   1  UNL1       -0.5492
@<TRIPOS>UNITY_ATOM_ATTR
45 1
charge -1
@<TRIPOS>BOND
     1    17    18    1
     2    18    10    1
     3    10    11   ar
     4    11    12   ar
     5    12    13   ar
     6    13    14   ar
     7    14     1    1
     8     1     2   ar
     9     2     3    1
    10     2     4   ar
    11     4    19    1
    12    19    20    1
    13    20    21   ar
    14    21    22    1
    15    21    23   ar
    16    23    24   ar
    17    24    25   ar
    18    25    26   ar
    19    26    27    1
    20    27    28    1
    21    27    29    1
    22    27    30    1
    23     4     5   ar
    24     5     6    2
    25     5     7   ar
    26     7    31    1
    27    32    31    1
    28    32    33    1
    29    33    34   ar
    30    34    35   ar
    31    35    36   ar
    32    36    37   ar
    33    37    38   ar
    34    32    39    1
    35    39    40    1
    36    39    41    1
    37    41    42    1
    38    42    43    1
    39    43    44    1
    40    44    45   ar
    41    44    46   ar
    42     7     8   ar
    43     8     9    2
    44    14    15   ar
    45    15    16    1
    46    15    10   ar
    47     8     1   ar
    48    26    20   ar
    49    38    33   ar
@<TRIPOS>MOLECULE
*****
 46 49 0 0 0
SMALL
GASTEIGER

@<TRIPOS>ATOM
      1 C          62.1685   87.5876   11.0680 C.ar    1  UNL1        0.0703
      2 C          62.4025   89.0441   11.3396 C.ar    1  UNL1        0.0465
      3 C          61.8220   90.0805   10.4238 C.3     1  UNL1        0.0503
      4 N          63.2172   89.4642   12.5270 N.ar    1  UNL1       -0.2806
      5 C          63.7978   88.4277   13.4428 C.ar    1  UNL1        0.3338
      6 O          64.3443   88.5861   14.2457 O.2     1  UNL1       -0.2462
      7 N          63.5637   86.9711   13.1712 N.ar    1  UNL1       -0.2470
      8 C          62.7491   86.5511   11.9838 C.ar    1  UNL1        0.2654
      9 O          62.3270   85.2240   11.4265 O.2     1  UNL1       -0.2668
     10 C          61.1801   85.9726    7.5802 C.ar    1  UNL1        0.1660
     11 C          59.7246   86.3273    7.5059 C.ar    1  UNL1        0.0392
     12 C          59.0836   87.1021    8.6189 C.ar    1  UNL1        0.0033
     13 C          59.8982   87.5222    9.8063 C.ar    1  UNL1        0.0026
     14 C          61.3538   87.1675    9.8806 C.ar    1  UNL1        0.0362
     15 C          61.9947   86.3927    8.7675 C.ar    1  UNL1        0.1739
     16 F          63.4503   86.0380    8.8419 F       1  UNL1       -0.2010
     17 C          61.1843   83.9343    5.9693 C.3     1  UNL1        0.2526
     18 O          61.8210   85.1978    6.4671 O.3     1  UNL1       -0.4692
     19 C          63.4513   90.9206   12.7986 C.3     1  UNL1        0.1391
     20 C          64.6473   91.6101   12.2120 C.ar    1  UNL1        0.0319
     21 C          64.6967   91.9059   10.7423 C.ar    1  UNL1        0.1379
     22 F          64.0075   91.6949   10.0722 F       1  UNL1       -0.2044
     23 C          65.8927   92.5954   10.1557 C.ar    1  UNL1        0.0294
     24 C          67.0394   92.9892   11.0389 C.ar    1  UNL1        0.0022
     25 C          66.9901   92.6934   12.5086 C.ar    1  UNL1        0.0037
     26 C          65.7941   92.0039   13.0952 C.ar    1  UNL1        0.0714
     27 C          65.7448   91.7082   14.5649 C.3     1  UNL1        0.4184
     28 F          65.6954   91.4125   16.0346 F       1  UNL1       -0.1659
     29 F          66.2513   90.3209   14.3028 F       1  UNL1       -0.1659
     30 F          65.2382   93.0955   14.8271 F       1  UNL1       -0.1659
     31 C          64.1443   85.9347   14.0870 C.3     1  UNL1        0.1339
     32 C          63.2497   84.9181   14.7320 C.3     1  UNL1        0.1033
     33 C          63.2176   83.5108   14.2138 C.ar    1  UNL1       -0.0059
     34 C          62.1324   82.5738   14.6546 C.ar    1  UNL1       -0.0029
     35 C          62.1003   81.1666   14.1364 C.ar    1  UNL1       -0.0003
     36 C          63.1534   80.6963   13.1774 C.ar    1  UNL1       -0.0000
     37 C          64.2387   81.6333   12.7365 C.ar    1  UNL1       -0.0003
     38 C          64.2708   83.0406   13.2547 C.ar    1  UNL1       -0.0029
     39 N          62.3871   85.3088   15.8954 N.3     1  UNL1       -0.2675
     40 C          60.8930   85.2603   15.7710 C.3     1  UNL1        0.0899
     41 C          63.0186   85.7479   17.1832 C.3     1  UNL1        0.0728
     42 C          62.7119   87.1047   17.7445 C.3     1  UNL1        0.0232
     43 C          63.4857   88.3019   17.2776 C.3     1  UNL1        0.0431
     44 C          62.7606   89.5072   16.7566 C.2     1  UNL1        0.0504
     45 O          61.4529   89.3441   16.0401 O.co2   1  UNL1       -0.5492
     46 O          63.0418   90.9805   16.7734 O.co2   1  UNL1       -0.5492
@<TRIPOS>UNITY_ATOM_ATTR
45 1
charge -1
@<TRIPOS>BOND
     1    17    18    1
     2    18    10    1
     3    10    11   ar
     4    11    12   ar
     5    12    13   ar
     6    13    14   ar
     7    14     1    1
     8     1     2   ar
     9     2     3    1
    10     2     4   ar
    11     4    19    1
    12    19    20    1
    13    20    21   ar
    14    21    22    1
    15    21    23   ar
    16    23    24   ar
    17    24    25   ar
    18    25    26   ar
    19    26    27    1
    20    27    28    1
    21    27    29    1
    22    27    30    1
    23     4     5   ar
    24     5     6    2
    25     5     7   ar
    26     7    31    1
    27    32    31    1
    28    32    33    1
    29    33    34   ar
    30    34    35   ar
    31    35    36   ar
    32    36    37   ar
    33    37    38   ar
    34    32    39    1
    35    39    40    1
    36    39    41    1
    37    41    42    1
    38    42    43    1
    39    43    44    1
    40    44    45   ar
    41    44    46   ar
    42     7     8   ar
    43     8     9    2
    44    14    15   ar
    45    15    16    1
    46    15    10   ar
    47     8     1   ar
    48    26    20   ar
    49    38    33   ar
@<TRIPOS>MOLECULE
*****
 46 49 0 0 0
SMALL
GASTEIGER

@<TRIPOS>ATOM
      1 C          63.2983   88.2972   13.6910 C.ar    1  UNL1        0.0703
      2 C          63.9519   86.9607   13.8817 C.ar    1  UNL1        0.0465
      3 C          65.0830   86.8110   14.8554 C.3     1  UNL1        0.0503
      4 N          63.4744   85.7737   13.0985 N.ar    1  UNL1       -0.2806
      5 C          62.3433   85.9233   12.1248 C.ar    1  UNL1        0.3338
      6 O          61.9500   85.2191   11.5611 O.2     1  UNL1       -0.2462
      7 N          61.6897   87.2600   11.9342 N.ar    1  UNL1       -0.2470
      8 C          62.1672   88.4468   12.7173 C.ar    1  UNL1        0.2654
      9 O          61.7576   89.8886   12.7777 O.2     1  UNL1       -0.2668
     10 C          65.1880   91.6596   14.6255 C.ar    1  UNL1        0.1660
     11 C          64.7307   91.8580   16.0402 C.ar    1  UNL1        0.0392
     12 C          63.7959   90.8695   16.6718 C.ar    1  UNL1        0.0033
     13 C          63.3184   89.6826   15.8888 C.ar    1  UNL1        0.0026
     14 C          63.7757   89.4842   14.4741 C.ar    1  UNL1        0.0362
     15 C          64.7105   90.4727   13.8424 C.ar    1  UNL1        0.1739
     16 F          65.1678   90.2742   12.4276 F       1  UNL1       -0.2010
     17 C          65.7763   93.2703   12.6736 C.3     1  UNL1        0.2526
     18 O          66.1228   92.6481   13.9938 O.3     1  UNL1       -0.4692
     19 C          64.1281   84.4372   13.2892 C.3     1  UNL1        0.1391
     20 C          63.2895   83.1956   13.3609 C.ar    1  UNL1        0.0319
     21 C          62.4317   82.9384   14.5643 C.ar    1  UNL1        0.1379
     22 F          62.3410   83.5102   15.3601 F       1  UNL1       -0.2044
     23 C          61.5931   81.6968   14.6360 C.ar    1  UNL1        0.0294
     24 C          61.6122   80.7124   13.5044 C.ar    1  UNL1        0.0022
     25 C          62.4699   80.9696   12.3010 C.ar    1  UNL1        0.0037
     26 C          63.3085   82.2112   12.2293 C.ar    1  UNL1        0.0714
     27 C          64.1663   82.4684   11.0259 C.3     1  UNL1        0.4184
     28 F          65.0240   82.7256    9.8225 F       1  UNL1       -0.1659
     29 F          65.3853   82.0906   11.8140 F       1  UNL1       -0.1659
     30 F          62.9472   82.8462   10.2377 F       1  UNL1       -0.1659
     31 C          60.5586   87.4096   10.9604 C.3     1  UNL1        0.1339
     32 C          60.8434   87.7367    9.5245 C.3     1  UNL1        0.1033
     33 C          61.2521   86.6502    8.5746 C.ar    1  UNL1       -0.0059
     34 C          60.2495   86.0719    7.6205 C.ar    1  UNL1       -0.0029
     35 C          60.6582   84.9853    6.6705 C.ar    1  UNL1       -0.0003
     36 C          62.0694   84.4771    6.6747 C.ar    1  UNL1       -0.0000
     37 C          63.0721   85.0554    7.6288 C.ar    1  UNL1       -0.0003
     38 C          62.6634   86.1420    8.5788 C.ar    1  UNL1       -0.0029
     39 N          60.7195   89.1504    9.0385 N.3     1  UNL1       -0.2675
     40 C          61.7120   90.1849    9.4798 C.3     1  UNL1        0.0899
     41 C          59.6031   89.5296    8.1112 C.3     1  UNL1        0.0728
     42 C          59.8651   89.6737    6.6414 C.3     1  UNL1        0.0232
     43 C          58.7246   89.9078    5.6956 C.3     1  UNL1        0.0431
     44 C          58.3728   91.3043    5.2761 C.2     1  UNL1        0.0504
     45 O          56.9346   91.7224    5.1924 O.co2   1  UNL1       -0.5492
     46 O          59.1766   92.5071    4.8799 O.co2   1  UNL1       -0.5492
@<TRIPOS>UNITY_ATOM_ATTR
45 1
charge -1
@<TRIPOS>BOND
     1    17    18    1
     2    18    10    1
     3    10    11   ar
     4    11    12   ar
     5    12    13   ar
     6    13    14   ar
     7    14     1    1
     8     1     2   ar
     9     2     3    1
    10     2     4   ar
    11     4    19    1
    12    19    20    1
    13    20    21   ar
    14    21    22    1
    15    21    23   ar
    16    23    24   ar
    17    24    25   ar
    18    25    26   ar
    19    26    27    1
    20    27    28    1
    21    27    29    1
    22    27    30    1
    23     4     5   ar
    24     5     6    2
    25     5     7   ar
    26     7    31    1
    27    32    31    1
    28    32    33    1
    29    33    34   ar
    30    34    35   ar
    31    35    36   ar
    32    36    37   ar
    33    37    38   ar
    34    32    39    1
    35    39    40    1
    36    39    41    1
    37    41    42    1
    38    42    43    1
    39    43    44    1
    40    44    45   ar
    41    44    46   ar
    42     7     8   ar
    43     8     9    2
    44    14    15   ar
    45    15    16    1
    46    15    10   ar
    47     8     1   ar
    48    26    20   ar
    49    38    33   ar
@<TRIPOS>MOLECULE
*****
 46 49 0 0 0
SMALL
GASTEIGER

@<TRIPOS>ATOM
      1 C          63.8833   90.0242   13.5119 C.ar    1  UNL1        0.0703
      2 C          64.8290   91.1882   13.4901 C.ar    1  UNL1        0.0465
      3 C          65.5593   91.5848   14.7389 C.3     1  UNL1        0.0503
      4 N          65.0445   91.9558   12.2195 N.ar    1  UNL1       -0.2806
      5 C          64.3142   91.5593   10.9707 C.ar    1  UNL1        0.3338
      6 O          64.3771   91.9870   10.0866 O.2     1  UNL1       -0.2462
      7 N          63.3684   90.3951   10.9926 N.ar    1  UNL1       -0.2470
      8 C          63.1530   89.6276   12.2632 C.ar    1  UNL1        0.2654
      9 O          62.3073   88.4463   12.6363 O.2     1  UNL1       -0.2668
     10 C          63.7596   87.0217   16.1042 C.ar    1  UNL1        0.1660
     11 C          63.2369   87.7214   17.3237 C.ar    1  UNL1        0.0392
     12 C          62.9297   89.1887   17.2726 C.ar    1  UNL1        0.0033
     13 C          63.1452   89.9563   16.0021 C.ar    1  UNL1        0.0026
     14 C          63.6678   89.2566   14.7826 C.ar    1  UNL1        0.0362
     15 C          63.9750   87.7893   14.8337 C.ar    1  UNL1        0.1739
     16 F          64.4977   87.0895   13.6141 F       1  UNL1       -0.2010
     17 C          63.1640   84.5746   15.4661 C.3     1  UNL1        0.2526
     18 O          64.0668   85.5544   16.1553 O.3     1  UNL1       -0.4692
     19 C          65.9902   93.1199   12.1976 C.3     1  UNL1        0.1391
     20 C          66.8294   93.3817   10.9823 C.ar    1  UNL1        0.0319
     21 C          67.7527   92.3186   10.4652 C.ar    1  UNL1        0.1379
     22 F          67.8889   91.4189   10.8399 F       1  UNL1       -0.2044
     23 C          68.5919   92.5805    9.2497 C.ar    1  UNL1        0.0294
     24 C          68.5078   93.9053    8.5514 C.ar    1  UNL1        0.0022
     25 C          67.5845   94.9684    9.0685 C.ar    1  UNL1        0.0037
     26 C          66.7453   94.7066   10.2839 C.ar    1  UNL1        0.0714
     27 C          65.8219   95.7696   10.8010 C.3     1  UNL1        0.4184
     28 F          64.8986   96.8327   11.3180 F       1  UNL1       -0.1659
     29 F          64.6834   95.1464   10.0492 F       1  UNL1       -0.1659
     30 F          66.9605   96.3929   11.5528 F       1  UNL1       -0.1659
     31 C          62.6382   89.9985    9.7438 C.3     1  UNL1        0.1339
     32 C          61.6115   88.9060    9.7903 C.3     1  UNL1        0.1033
     33 C          62.0452   87.4718    9.8615 C.ar    1  UNL1       -0.0059
     34 C          62.6503   86.8106    8.6588 C.ar    1  UNL1       -0.0029
     35 C          63.0839   85.3764    8.7301 C.ar    1  UNL1       -0.0003
     36 C          62.9125   84.6035   10.0041 C.ar    1  UNL1       -0.0000
     37 C          62.3074   85.2647   11.2069 C.ar    1  UNL1       -0.0003
     38 C          61.8737   86.6989   11.1356 C.ar    1  UNL1       -0.0029
     39 N          60.1511   89.2476    9.7654 N.3     1  UNL1       -0.2675
     40 C          59.4844   89.7803   10.9990 C.3     1  UNL1        0.0899
     41 C          59.3574   89.0564    8.5071 C.3     1  UNL1        0.0728
     42 C          59.7864   89.7341    7.2395 C.3     1  UNL1        0.0232
     43 C          58.8693   89.7550    6.0528 C.3     1  UNL1        0.0431
     44 C          58.5031   91.0602    5.4108 C.2     1  UNL1        0.0504
     45 O          57.0602   91.4327    5.2386 O.co2   1  UNL1       -0.5492
     46 O          59.2949   92.1998    4.8412 O.co2   1  UNL1       -0.5492
@<TRIPOS>UNITY_ATOM_ATTR
45 1
charge -1
@<TRIPOS>BOND
     1    17    18    1
     2    18    10    1
     3    10    11   ar
     4    11    12   ar
     5    12    13   ar
     6    13    14   ar
     7    14     1    1
     8     1     2   ar
     9     2     3    1
    10     2     4   ar
    11     4    19    1
    12    19    20    1
    13    20    21   ar
    14    21    22    1
    15    21    23   ar
    16    23    24   ar
    17    24    25   ar
    18    25    26   ar
    19    26    27    1
    20    27    28    1
    21    27    29    1
    22    27    30    1
    23     4     5   ar
    24     5     6    2
    25     5     7   ar
    26     7    31    1
    27    32    31    1
    28    32    33    1
    29    33    34   ar
    30    34    35   ar
    31    35    36   ar
    32    36    37   ar
    33    37    38   ar
    34    32    39    1
    35    39    40    1
    36    39    41    1
    37    41    42    1
    38    42    43    1
    39    43    44    1
    40    44    45   ar
    41    44    46   ar
    42     7     8   ar
    43     8     9    2
    44    14    15   ar
    45    15    16    1
    46    15    10   ar
    47     8     1   ar
    48    26    20   ar
    49    38    33   ar
@<TRIPOS>MOLECULE
*****
 46 49 0 0 0
SMALL
GASTEIGER

@<TRIPOS>ATOM
      1 C          62.2315   87.5157   11.2299 C.ar    1  UNL1        0.0703
      2 C          62.9022   86.4752   12.0769 C.ar    1  UNL1        0.0465
      3 C          62.7594   85.0221   11.7331 C.3     1  UNL1        0.0503
      4 N          63.7157   86.8877   13.2678 N.ar    1  UNL1       -0.2806
      5 C          63.8584   88.3408   13.6116 C.ar    1  UNL1        0.3338
      6 O          64.3637   88.7246   14.3638 O.2     1  UNL1       -0.2462
      7 N          63.1877   89.3813   12.7645 N.ar    1  UNL1       -0.2470
      8 C          62.3742   88.9688   11.5737 C.ar    1  UNL1        0.2654
      9 O          61.5899   89.7177   10.5375 O.2     1  UNL1       -0.2668
     10 C          61.2506   85.9380    7.7230 C.ar    1  UNL1        0.1660
     11 C          59.7912   86.2781    7.6574 C.ar    1  UNL1        0.0392
     12 C          59.1452   87.0308    8.7826 C.ar    1  UNL1        0.0033
     13 C          59.9586   87.4433    9.9734 C.ar    1  UNL1        0.0026
     14 C          61.4180   87.1032   10.0390 C.ar    1  UNL1        0.0362
     15 C          62.0640   86.3505    8.9138 C.ar    1  UNL1        0.1739
     16 F          63.5235   86.0103    8.9795 F       1  UNL1       -0.2010
     17 C          61.1578   84.0694    5.9203 C.3     1  UNL1        0.2526
     18 O          61.8966   85.1853    6.5977 O.3     1  UNL1       -0.4692
     19 C          64.3864   85.8472   14.1148 C.3     1  UNL1        0.1391
     20 C          63.8837   84.4340   14.1048 C.ar    1  UNL1        0.0319
     21 C          64.4403   83.4469   13.1220 C.ar    1  UNL1        0.1379
     22 F          65.1326   83.6135   12.4427 F       1  UNL1       -0.2044
     23 C          63.9376   82.0336   13.1120 C.ar    1  UNL1        0.0294
     24 C          62.8784   81.6075   14.0848 C.ar    1  UNL1        0.0022
     25 C          62.3218   82.5945   15.0676 C.ar    1  UNL1        0.0037
     26 C          62.8244   84.0077   15.0776 C.ar    1  UNL1        0.0714
     27 C          62.2678   84.9948   16.0604 C.3     1  UNL1        0.4184
     28 F          61.7112   85.9819   17.0432 F       1  UNL1       -0.1659
     29 F          60.9328   84.9185   15.3809 F       1  UNL1       -0.1659
     30 F          63.6029   85.0711   16.7399 F       1  UNL1       -0.1659
     31 C          63.3304   90.8344   13.1084 C.3     1  UNL1        0.1339
     32 C          64.5851   91.5714   12.7446 C.3     1  UNL1        0.1033
     33 C          65.6394   91.8157   13.7833 C.ar    1  UNL1       -0.0059
     34 C          65.2426   92.1693   15.1859 C.ar    1  UNL1       -0.0029
     35 C          66.2968   92.4136   16.2246 C.ar    1  UNL1       -0.0003
     36 C          67.7479   92.3044   15.8607 C.ar    1  UNL1       -0.0000
     37 C          68.1447   91.9509   14.4579 C.ar    1  UNL1       -0.0003
     38 C          67.0905   91.7066   13.4192 C.ar    1  UNL1       -0.0029
     39 N          64.7857   92.0642   11.3420 N.3     1  UNL1       -0.2675
     40 C          63.8176   91.6745   10.2646 C.3     1  UNL1        0.0899
     41 C          65.9544   92.9465   11.0170 C.3     1  UNL1        0.0728
     42 C          65.8550   94.4290   11.2228 C.3     1  UNL1        0.0232
     43 C          66.7649   95.3534   10.4696 C.3     1  UNL1        0.0431
     44 C          67.6897   94.8070    9.4226 C.2     1  UNL1        0.0504
     45 O          67.5156   95.2048    7.9867 O.co2   1  UNL1       -0.5492
     46 O          68.8607   93.8701    9.4528 O.co2   1  UNL1       -0.5492
@<TRIPOS>UNITY_ATOM_ATTR
45 1
charge -1
@<TRIPOS>BOND
     1    17    18    1
     2    18    10    1
     3    10    11   ar
     4    11    12   ar
     5    12    13   ar
     6    13    14   ar
     7    14     1    1
     8     1     2   ar
     9     2     3    1
    10     2     4   ar
    11     4    19    1
    12    19    20    1
    13    20    21   ar
    14    21    22    1
    15    21    23   ar
    16    23    24   ar
    17    24    25   ar
    18    25    26   ar
    19    26    27    1
    20    27    28    1
    21    27    29    1
    22    27    30    1
    23     4     5   ar
    24     5     6    2
    25     5     7   ar
    26     7    31    1
    27    32    31    1
    28    32    33    1
    29    33    34   ar
    30    34    35   ar
    31    35    36   ar
    32    36    37   ar
    33    37    38   ar
    34    32    39    1
    35    39    40    1
    36    39    41    1
    37    41    42    1
    38    42    43    1
    39    43    44    1
    40    44    45   ar
    41    44    46   ar
    42     7     8   ar
    43     8     9    2
    44    14    15   ar
    45    15    16    1
    46    15    10   ar
    47     8     1   ar
    48    26    20   ar
    49    38    33   ar
@<TRIPOS>MOLECULE
*****
 46 49 0 0 0
SMALL
GASTEIGER

@<TRIPOS>ATOM
      1 C          62.1453   87.4678   11.0666 C.ar    1  UNL1        0.0703
      2 C          62.3893   88.9082   11.4067 C.ar    1  UNL1        0.0465
      3 C          61.8290   89.9906   10.5324 C.3     1  UNL1        0.0503
      4 N          63.1936   89.2662   12.6213 N.ar    1  UNL1       -0.2806
      5 C          63.7539   88.1838   13.4956 C.ar    1  UNL1        0.3338
      6 O          64.2923   88.3004   14.3111 O.2     1  UNL1       -0.2462
      7 N          63.5099   86.7434   13.1554 N.ar    1  UNL1       -0.2470
      8 C          62.7056   86.3854   11.9410 C.ar    1  UNL1        0.2654
      9 O          62.2783   85.0890   11.3191 O.2     1  UNL1       -0.2668
     10 C          61.1726   85.9846    7.5164 C.ar    1  UNL1        0.1660
     11 C          59.7325   86.3937    7.4232 C.ar    1  UNL1        0.0392
     12 C          59.0967   87.1608    8.5444 C.ar    1  UNL1        0.0033
     13 C          59.9009   87.5189    9.7589 C.ar    1  UNL1        0.0026
     14 C          61.3410   87.1098    9.8521 C.ar    1  UNL1        0.0362
     15 C          61.9768   86.3426    8.7309 C.ar    1  UNL1        0.1739
     16 F          63.4170   85.9335    8.8241 F       1  UNL1       -0.2010
     17 C          61.2034   83.9251    5.9329 C.3     1  UNL1        0.2526
     18 O          61.8085   85.2174    6.3952 O.3     1  UNL1       -0.4692
     19 C          63.4376   90.7066   12.9614 C.3     1  UNL1        0.1391
     20 C          64.8400   91.2350   13.0253 C.ar    1  UNL1        0.0319
     21 C          65.6746   91.0008   14.2494 C.ar    1  UNL1        0.1379
     22 F          65.4082   90.5179   15.0644 F       1  UNL1       -0.2044
     23 C          67.0771   91.5292   14.3133 C.ar    1  UNL1        0.0294
     24 C          67.6448   92.2917   13.1530 C.ar    1  UNL1        0.0022
     25 C          66.8102   92.5258   11.9289 C.ar    1  UNL1        0.0037
     26 C          65.4078   91.9975   11.8650 C.ar    1  UNL1        0.0714
     27 C          64.5731   92.2316   10.6408 C.3     1  UNL1        0.4184
     28 F          63.7385   92.4658    9.4167 F       1  UNL1       -0.1659
     29 F          64.5569   93.7028   10.9332 F       1  UNL1       -0.1659
     30 F          64.5893   90.7605   10.3484 F       1  UNL1       -0.1659
     31 C          64.0702   85.6610   14.0297 C.3     1  UNL1        0.1339
     32 C          63.1458   84.7215   14.7458 C.3     1  UNL1        0.1033
     33 C          63.0386   83.2923   14.3034 C.ar    1  UNL1       -0.0059
     34 C          61.8312   82.4818   14.6712 C.ar    1  UNL1       -0.0029
     35 C          61.7240   81.0526   14.2288 C.ar    1  UNL1       -0.0003
     36 C          62.8242   80.4337   13.4185 C.ar    1  UNL1       -0.0000
     37 C          64.0317   81.2442   13.0506 C.ar    1  UNL1       -0.0003
     38 C          64.1389   82.6735   13.4931 C.ar    1  UNL1       -0.0029
     39 N          62.3285   85.2113   15.9044 N.3     1  UNL1       -0.2675
     40 C          60.8306   85.1709   15.8358 C.3     1  UNL1        0.0899
     41 C          63.0091   85.7414   17.1315 C.3     1  UNL1        0.0728
     42 C          62.5844   87.0559   17.7159 C.3     1  UNL1        0.0232
     43 C          63.3886   88.2925   17.4438 C.3     1  UNL1        0.0431
     44 C          62.7418   89.4800   16.7947 C.2     1  UNL1        0.0504
     45 O          61.4531   89.3156   16.0448 O.co2   1  UNL1       -0.5492
     46 O          63.0941   90.9348   16.6969 O.co2   1  UNL1       -0.5492
@<TRIPOS>UNITY_ATOM_ATTR
45 1
charge -1
@<TRIPOS>BOND
     1    17    18    1
     2    18    10    1
     3    10    11   ar
     4    11    12   ar
     5    12    13   ar
     6    13    14   ar
     7    14     1    1
     8     1     2   ar
     9     2     3    1
    10     2     4   ar
    11     4    19    1
    12    19    20    1
    13    20    21   ar
    14    21    22    1
    15    21    23   ar
    16    23    24   ar
    17    24    25   ar
    18    25    26   ar
    19    26    27    1
    20    27    28    1
    21    27    29    1
    22    27    30    1
    23     4     5   ar
    24     5     6    2
    25     5     7   ar
    26     7    31    1
    27    32    31    1
    28    32    33    1
    29    33    34   ar
    30    34    35   ar
    31    35    36   ar
    32    36    37   ar
    33    37    38   ar
    34    32    39    1
    35    39    40    1
    36    39    41    1
    37    41    42    1
    38    42    43    1
    39    43    44    1
    40    44    45   ar
    41    44    46   ar
    42     7     8   ar
    43     8     9    2
    44    14    15   ar
    45    15    16    1
    46    15    10   ar
    47     8     1   ar
    48    26    20   ar
    49    38    33   ar
@<TRIPOS>MOLECULE
*****
 46 49 0 0 0
SMALL
GASTEIGER

@<TRIPOS>ATOM
      1 C          63.8916   90.0009   13.5611 C.ar    1  UNL1        0.0703
      2 C          64.7841   91.2058   13.6016 C.ar    1  UNL1        0.0465
      3 C          65.4670   91.5907   14.8805 C.3     1  UNL1        0.0503
      4 N          64.9937   92.0258   12.3632 N.ar    1  UNL1       -0.2806
      5 C          64.3108   91.6410   11.0843 C.ar    1  UNL1        0.3338
      6 O          64.3746   92.1015   10.2169 O.2     1  UNL1       -0.2462
      7 N          63.4183   90.4360   11.0439 N.ar    1  UNL1       -0.2470
      8 C          63.2087   89.6160   12.2822 C.ar    1  UNL1        0.2654
      9 O          62.4088   88.3862   12.5946 O.2     1  UNL1       -0.2668
     10 C          63.8025   86.8976   16.0333 C.ar    1  UNL1        0.1660
     11 C          63.2627   87.5407   17.2762 C.ar    1  UNL1        0.0392
     12 C          62.9326   89.0039   17.2808 C.ar    1  UNL1        0.0033
     13 C          63.1422   89.8240   16.0425 C.ar    1  UNL1        0.0026
     14 C          63.6819   89.1808   14.7995 C.ar    1  UNL1        0.0362
     15 C          64.0121   87.7176   14.7949 C.ar    1  UNL1        0.1739
     16 F          64.5519   87.0745   13.5519 F       1  UNL1       -0.2010
     17 C          63.2007   84.4573   15.3755 C.3     1  UNL1        0.2526
     18 O          64.1327   85.4344   16.0287 O.3     1  UNL1       -0.4692
     19 C          65.8862   93.2307   12.4036 C.3     1  UNL1        0.1391
     20 C          66.4237   93.8091   11.1283 C.ar    1  UNL1        0.0319
     21 C          65.8059   95.0461   10.5469 C.ar    1  UNL1        0.1379
     22 F          65.0500   95.5589   10.9130 F       1  UNL1       -0.2044
     23 C          66.3434   95.6245    9.2714 C.ar    1  UNL1        0.0294
     24 C          67.4986   94.9658    8.5775 C.ar    1  UNL1        0.0022
     25 C          68.1164   93.7288    9.1589 C.ar    1  UNL1        0.0037
     26 C          67.5789   93.1504   10.4343 C.ar    1  UNL1        0.0714
     27 C          68.1967   91.9133   11.0157 C.3     1  UNL1        0.4184
     28 F          68.8145   90.6763   11.5971 F       1  UNL1       -0.1659
     29 F          68.1129   91.2422    9.6768 F       1  UNL1       -0.1659
     30 F          68.2805   92.5844   12.3546 F       1  UNL1       -0.1659
     31 C          62.7354   90.0511    9.7650 C.3     1  UNL1        0.1339
     32 C          61.6575   89.0080    9.7748 C.3     1  UNL1        0.1033
     33 C          62.0214   87.5540    9.8325 C.ar    1  UNL1       -0.0059
     34 C          61.6361   86.7312   11.0259 C.ar    1  UNL1       -0.0029
     35 C          62.0000   85.2771   11.0836 C.ar    1  UNL1       -0.0003
     36 C          62.7493   84.6459    9.9478 C.ar    1  UNL1       -0.0000
     37 C          63.1347   85.4688    8.7542 C.ar    1  UNL1       -0.0003
     38 C          62.7708   86.9228    8.6966 C.ar    1  UNL1       -0.0029
     39 N          60.2156   89.4190    9.7269 N.3     1  UNL1       -0.2675
     40 C          59.6125   90.1741   10.8740 C.3     1  UNL1        0.0899
     41 C          59.3770   89.0747    8.5319 C.3     1  UNL1        0.0728
     42 C          59.7818   89.5522    7.1688 C.3     1  UNL1        0.0232
     43 C          58.7507   89.7020    6.0897 C.3     1  UNL1        0.0431
     44 C          58.5582   91.0278    5.4151 C.2     1  UNL1        0.0504
     45 O          57.1751   91.5708    5.2092 O.co2   1  UNL1       -0.5492
     46 O          59.4932   92.0484    4.8372 O.co2   1  UNL1       -0.5492
@<TRIPOS>UNITY_ATOM_ATTR
45 1
charge -1
@<TRIPOS>BOND
     1    17    18    1
     2    18    10    1
     3    10    11   ar
     4    11    12   ar
     5    12    13   ar
     6    13    14   ar
     7    14     1    1
     8     1     2   ar
     9     2     3    1
    10     2     4   ar
    11     4    19    1
    12    19    20    1
    13    20    21   ar
    14    21    22    1
    15    21    23   ar
    16    23    24   ar
    17    24    25   ar
    18    25    26   ar
    19    26    27    1
    20    27    28    1
    21    27    29    1
    22    27    30    1
    23     4     5   ar
    24     5     6    2
    25     5     7   ar
    26     7    31    1
    27    32    31    1
    28    32    33    1
    29    33    34   ar
    30    34    35   ar
    31    35    36   ar
    32    36    37   ar
    33    37    38   ar
    34    32    39    1
    35    39    40    1
    36    39    41    1
    37    41    42    1
    38    42    43    1
    39    43    44    1
    40    44    45   ar
    41    44    46   ar
    42     7     8   ar
    43     8     9    2
    44    14    15   ar
    45    15    16    1
    46    15    10   ar
    47     8     1   ar
    48    26    20   ar
    49    38    33   ar
@<TRIPOS>MOLECULE
*****
 46 49 0 0 0
SMALL
GASTEIGER

@<TRIPOS>ATOM
      1 C          62.8357   95.4280   -3.3881 C.ar    1  UNL1        0.0703
      2 C          63.1646   95.4193   -1.9247 C.ar    1  UNL1        0.0465
      3 C          64.5520   95.0753   -1.4699 C.3     1  UNL1        0.0503
      4 N          62.1061   95.7545   -0.9160 N.ar    1  UNL1       -0.2806
      5 C          60.7188   96.0985   -1.3709 C.ar    1  UNL1        0.3338
      6 O          59.9503   96.3331   -0.8027 O.2     1  UNL1       -0.2462
      7 N          60.3899   96.1073   -2.8344 N.ar    1  UNL1       -0.2470
      8 C          61.4483   95.7720   -3.8430 C.ar    1  UNL1        0.2654
      9 O          61.4708   95.6856   -5.3403 O.2     1  UNL1       -0.2668
     10 C          65.2880   93.3238   -5.6922 C.ar    1  UNL1        0.1660
     11 C          66.0109   94.4221   -6.4140 C.ar    1  UNL1        0.0392
     12 C          65.6754   95.8557   -6.1273 C.ar    1  UNL1        0.0033
     13 C          64.6170   96.1910   -5.1187 C.ar    1  UNL1        0.0026
     14 C          63.8941   95.0927   -4.3968 C.ar    1  UNL1        0.0362
     15 C          64.2297   93.6591   -4.6836 C.ar    1  UNL1        0.1739
     16 F          63.5067   92.5608   -3.9616 F       1  UNL1       -0.2010
     17 C          65.4024   91.3284   -7.3520 C.3     1  UNL1        0.2526
     18 O          65.6236   91.8902   -5.9789 O.3     1  UNL1       -0.4692
     19 C          62.4351   95.7458    0.5474 C.3     1  UNL1        0.1391
     20 C          62.0191   94.5859    1.4026 C.ar    1  UNL1        0.0319
     21 C          60.5856   94.4368    1.8186 C.ar    1  UNL1        0.1379
     22 F          59.8377   95.0346    1.5913 F       1  UNL1       -0.2044
     23 C          60.1697   93.2768    2.6739 C.ar    1  UNL1        0.0294
     24 C          61.1871   92.2659    3.1132 C.ar    1  UNL1        0.0022
     25 C          62.6205   92.4150    2.6972 C.ar    1  UNL1        0.0037
     26 C          63.0365   93.5749    1.8419 C.ar    1  UNL1        0.0714
     27 C          64.4700   93.7240    1.4259 C.3     1  UNL1        0.4184
     28 F          65.9034   93.8731    1.0099 F       1  UNL1       -0.1659
     29 F          64.6728   94.7565    2.4950 F       1  UNL1       -0.1659
     30 F          64.2671   92.6916    0.3568 F       1  UNL1       -0.1659
     31 C          59.0025   96.4513   -3.2893 C.3     1  UNL1        0.1339
     32 C          57.9451   95.3887   -3.3411 C.3     1  UNL1        0.1033
     33 C          56.5602   95.6839   -2.8463 C.ar    1  UNL1       -0.0059
     34 C          55.3798   95.4635   -3.7451 C.ar    1  UNL1       -0.0029
     35 C          53.9949   95.7588   -3.2503 C.ar    1  UNL1       -0.0003
     36 C          53.7904   96.2745   -1.8567 C.ar    1  UNL1       -0.0000
     37 C          54.9709   96.4950   -0.9578 C.ar    1  UNL1       -0.0003
     38 C          56.3558   96.1997   -1.4526 C.ar    1  UNL1       -0.0029
     39 N          58.2726   94.0307   -3.8877 N.3     1  UNL1       -0.2675
     40 C          58.3333   93.8138   -5.3706 C.3     1  UNL1        0.0899
     41 C          58.5394   92.8896   -2.9512 C.3     1  UNL1        0.0728
     42 C          57.4980   92.4799   -1.9525 C.3     1  UNL1        0.0232
     43 C          56.1250   92.0929   -2.4165 C.3     1  UNL1        0.0431
     44 C          55.9606   91.0742   -3.5051 C.2     1  UNL1        0.0504
     45 O          55.4010   89.7195   -3.1864 O.co2   1  UNL1       -0.5492
     46 O          56.2430   91.0686   -4.9783 O.co2   1  UNL1       -0.5492
@<TRIPOS>UNITY_ATOM_ATTR
45 1
charge -1
@<TRIPOS>BOND
     1    17    18    1
     2    18    10    1
     3    10    11   ar
     4    11    12   ar
     5    12    13   ar
     6    13    14   ar
     7    14     1    1
     8     1     2   ar
     9     2     3    1
    10     2     4   ar
    11     4    19    1
    12    19    20    1
    13    20    21   ar
    14    21    22    1
    15    21    23   ar
    16    23    24   ar
    17    24    25   ar
    18    25    26   ar
    19    26    27    1
    20    27    28    1
    21    27    29    1
    22    27    30    1
    23     4     5   ar
    24     5     6    2
    25     5     7   ar
    26     7    31    1
    27    32    31    1
    28    32    33    1
    29    33    34   ar
    30    34    35   ar
    31    35    36   ar
    32    36    37   ar
    33    37    38   ar
    34    32    39    1
    35    39    40    1
    36    39    41    1
    37    41    42    1
    38    42    43    1
    39    43    44    1
    40    44    45   ar
    41    44    46   ar
    42     7     8   ar
    43     8     9    2
    44    14    15   ar
    45    15    16    1
    46    15    10   ar
    47     8     1   ar
    48    26    20   ar
    49    38    33   ar
@<TRIPOS>MOLECULE
*****
 46 49 0 0 0
SMALL
GASTEIGER

@<TRIPOS>ATOM
      1 C          63.8622   89.5641   13.6991 C.ar    1  UNL1        0.0703
      2 C          63.1201   89.3284   12.4171 C.ar    1  UNL1        0.0465
      3 C          62.1984   88.1519   12.2894 C.3     1  UNL1        0.0503
      4 N          63.2997   90.2693   11.2626 N.ar    1  UNL1       -0.2806
      5 C          64.2214   91.4458   11.3904 C.ar    1  UNL1        0.3338
      6 O          64.4152   92.1237   10.7038 O.2     1  UNL1       -0.2462
      7 N          64.9636   91.6814   12.6725 N.ar    1  UNL1       -0.2470
      8 C          64.7840   90.7406   13.8268 C.ar    1  UNL1        0.2654
      9 O          65.3502   90.6735   15.2142 O.2     1  UNL1       -0.2668
     10 C          63.8970   86.2417   15.8695 C.ar    1  UNL1        0.1660
     11 C          63.3236   86.7416   17.1622 C.ar    1  UNL1        0.0392
     12 C          62.9297   88.1823   17.3006 C.ar    1  UNL1        0.0033
     13 C          63.1092   89.1231   16.1463 C.ar    1  UNL1        0.0026
     14 C          63.6827   88.6232   14.8535 C.ar    1  UNL1        0.0362
     15 C          64.0766   87.1825   14.7151 C.ar    1  UNL1        0.1739
     16 F          64.6500   86.6826   13.4223 F       1  UNL1       -0.2010
     17 C          63.5917   83.9247   14.7345 C.3     1  UNL1        0.2526
     18 O          64.2909   84.8009   15.7310 O.3     1  UNL1       -0.4692
     19 C          62.5576   90.0336    9.9806 C.3     1  UNL1        0.1391
     20 C          61.7735   88.7693    9.7894 C.ar    1  UNL1        0.0319
     21 C          62.4462   87.5449    9.2432 C.ar    1  UNL1        0.1379
     22 F          63.3897   87.4560    8.9778 F       1  UNL1       -0.2044
     23 C          61.6620   86.2805    9.0520 C.ar    1  UNL1        0.0294
     24 C          60.2053   86.2405    9.4072 C.ar    1  UNL1        0.0022
     25 C          59.5326   87.4649    9.9535 C.ar    1  UNL1        0.0037
     26 C          60.3167   88.7292   10.1446 C.ar    1  UNL1        0.0714
     27 C          59.6440   89.9536   10.6909 C.3     1  UNL1        0.4184
     28 F          58.9713   91.1780   11.2372 F       1  UNL1       -0.1659
     29 F          59.7703   90.6199    9.3530 F       1  UNL1       -0.1659
     30 F          59.5177   89.2873   12.0288 F       1  UNL1       -0.1659
     31 C          65.8853   92.8579   12.8002 C.3     1  UNL1        0.1339
     32 C          66.8742   93.1574   11.7129 C.3     1  UNL1        0.1033
     33 C          66.7153   94.3901   10.8732 C.ar    1  UNL1       -0.0059
     34 C          67.2191   94.4054    9.4605 C.ar    1  UNL1       -0.0029
     35 C          67.0601   95.6381    8.6208 C.ar    1  UNL1       -0.0003
     36 C          66.3974   96.8556    9.1938 C.ar    1  UNL1       -0.0000
     37 C          65.8936   96.8404   10.6067 C.ar    1  UNL1       -0.0003
     38 C          66.0525   95.6077   11.4464 C.ar    1  UNL1       -0.0029
     39 N          68.0222   92.2241   11.4653 N.3     1  UNL1       -0.2675
     40 C          68.5082   91.9878   10.0661 C.3     1  UNL1        0.0899
     41 C          68.6840   91.5272   12.6169 C.3     1  UNL1        0.0728
     42 C          69.0372   92.2956   13.8558 C.3     1  UNL1        0.0232
     43 C          68.3918   91.9468   15.1642 C.3     1  UNL1        0.0431
     44 C          67.7498   93.0193   15.9933 C.2     1  UNL1        0.0504
     45 O          68.4365   94.3409   16.1722 O.co2   1  UNL1       -0.5492
     46 O          66.4670   93.1122   16.7650 O.co2   1  UNL1       -0.5492
@<TRIPOS>UNITY_ATOM_ATTR
45 1
charge -1
@<TRIPOS>BOND
     1    17    18    1
     2    18    10    1
     3    10    11   ar
     4    11    12   ar
     5    12    13   ar
     6    13    14   ar
     7    14     1    1
     8     1     2   ar
     9     2     3    1
    10     2     4   ar
    11     4    19    1
    12    19    20    1
    13    20    21   ar
    14    21    22    1
    15    21    23   ar
    16    23    24   ar
    17    24    25   ar
    18    25    26   ar
    19    26    27    1
    20    27    28    1
    21    27    29    1
    22    27    30    1
    23     4     5   ar
    24     5     6    2
    25     5     7   ar
    26     7    31    1
    27    32    31    1
    28    32    33    1
    29    33    34   ar
    30    34    35   ar
    31    35    36   ar
    32    36    37   ar
    33    37    38   ar
    34    32    39    1
    35    39    40    1
    36    39    41    1
    37    41    42    1
    38    42    43    1
    39    43    44    1
    40    44    45   ar
    41    44    46   ar
    42     7     8   ar
    43     8     9    2
    44    14    15   ar
    45    15    16    1
    46    15    10   ar
    47     8     1   ar
    48    26    20   ar
    49    38    33   ar
