@<TRIPOS>MOLECULE
*****
 28 32 0 0 0
SMALL
GASTEIGER

@<TRIPOS>ATOM
      1 C          64.5507   91.6735   12.1743 C.ar    1  UNL1        0.1755
      2 N          65.0996   92.2582   13.4419 N.ar    1  UNL1       -0.2192
      3 C          64.4418   91.5622   14.5964 C.ar    1  UNL1        0.1186
      4 C          64.5894   91.7214   16.0806 C.ar    1  UNL1        0.1194
      5 N          63.7814   90.8657   17.0106 N.ar    1  UNL1       -0.2406
      6 C          62.8259   89.8508   16.4565 C.ar    1  UNL1        0.1005
      7 C          62.6784   89.6916   14.9723 C.ar    1  UNL1        0.0398
      8 C          63.4863   90.5473   14.0422 C.ar    1  UNL1        0.0865
      9 N          63.5536   90.6161   12.5453 N.ar    1  UNL1       -0.2853
     10 C          62.7626   89.7752   11.5876 C.ar    1  UNL1        0.0658
     11 C          61.9900   90.4265   10.4791 C.ar    1  UNL1        0.0173
     12 C          61.1991   89.5855    9.5214 C.ar    1  UNL1       -0.0028
     13 C          61.1808   88.0933    9.6721 C.ar    1  UNL1       -0.0224
     14 C          61.9534   87.4419   10.7807 C.ar    1  UNL1       -0.0026
     15 C          61.9350   85.9496   10.9315 C.ar    1  UNL1       -0.0003
     16 C          62.7076   85.2983   12.0400 C.ar    1  UNL1       -0.0000
     17 C          63.4986   86.1393   12.9977 C.ar    1  UNL1        0.0000
     18 C          63.5169   87.6315   12.8469 C.ar    1  UNL1        0.0014
     19 C          62.7443   88.2828   11.7384 C.ar    1  UNL1        0.0159
     20 C          60.3898   87.2523    8.7144 C.3     1  UNL1        0.0224
     21 C          59.1113   86.9721    7.9819 C.3     1  UNL1        0.0047
     22 C          60.2985   86.0760    7.7882 C.3     1  UNL1        0.0047
     23 S          64.9319   92.0757   10.7804 S.3     1  UNL1       -0.0722
     24 C          65.8290   94.4914   10.4499 C.3     1  UNL1        0.0181
     25 C          66.0789   93.0164   10.5583 C.3     1  UNL1        0.0910
     26 C          67.4759   92.4820   10.4446 C.2     1  UNL1        0.0605
     27 O          68.1049   92.3085    9.0940 O.co2   1  UNL1       -0.5483
     28 O          68.2439   92.1212   11.6816 O.co2   1  UNL1       -0.5483
@<TRIPOS>UNITY_ATOM_ATTR
27 1
charge -1
@<TRIPOS>BOND
     1    24    25    1
     2    25    23    1
     3    23     1    1
     4     1     2   ar
     5     2     3   ar
     6     3     4   ar
     7     4     5   ar
     8     5     6   ar
     9     6     7   ar
    10     7     8   ar
    11     8     9   ar
    12     9    10    1
    13    10    11   ar
    14    11    12   ar
    15    12    13   ar
    16    13    20    1
    17    20    21    1
    18    21    22    1
    19    13    14   ar
    20    14    15   ar
    21    15    16   ar
    22    16    17   ar
    23    17    18   ar
    24    18    19   ar
    25    25    26    1
    26    26    27   ar
    27    26    28   ar
    28     9     1   ar
    29    19    10   ar
    30     8     3   ar
    31    22    20    1
    32    19    14   ar
@<TRIPOS>MOLECULE
*****
 28 32 0 0 0
SMALL
GASTEIGER

@<TRIPOS>ATOM
      1 C          63.6581   90.5469   13.8055 C.ar    1  UNL1        0.1755
      2 N          64.6667   91.5434   14.2951 N.ar    1  UNL1       -0.2192
      3 C          65.2540   92.2338   13.1000 C.ar    1  UNL1        0.1186
      4 C          66.2933   93.3078   12.9714 C.ar    1  UNL1        0.1194
      5 N          66.6870   93.8118   11.6146 N.ar    1  UNL1       -0.2406
      6 C          66.0414   93.2420   10.3864 C.ar    1  UNL1        0.1005
      7 C          65.0022   92.1681   10.5150 C.ar    1  UNL1        0.0398
      8 C          64.6085   91.6640   11.8718 C.ar    1  UNL1        0.0865
      9 N          63.6221   90.6214   12.3078 N.ar    1  UNL1       -0.2853
     10 C          62.7525   89.7979   11.4046 C.ar    1  UNL1        0.0658
     11 C          61.9348   90.4646   10.3384 C.ar    1  UNL1        0.0173
     12 C          61.0652   89.6411    9.4353 C.ar    1  UNL1       -0.0028
     13 C          61.0132   88.1509    9.5984 C.ar    1  UNL1       -0.0224
     14 C          61.8310   87.4841   10.6647 C.ar    1  UNL1       -0.0026
     15 C          61.7790   85.9940   10.8278 C.ar    1  UNL1       -0.0003
     16 C          62.5967   85.3273   11.8940 C.ar    1  UNL1       -0.0000
     17 C          63.4663   86.1508   12.7971 C.ar    1  UNL1        0.0000
     18 C          63.5183   87.6409   12.6340 C.ar    1  UNL1        0.0014
     19 C          62.7006   88.3076   11.5678 C.ar    1  UNL1        0.0159
     20 C          60.1436   87.3274    8.6953 C.3     1  UNL1        0.0224
     21 C          59.9664   86.1528    7.7794 C.3     1  UNL1        0.0047
     22 C          58.8146   87.0758    8.0469 C.3     1  UNL1        0.0047
     23 S          62.8308   89.6358   14.6630 S.3     1  UNL1       -0.0722
     24 C          63.5105   90.6032   16.9765 C.3     1  UNL1        0.0181
     25 C          63.1948   89.4255   16.1029 C.3     1  UNL1        0.0910
     26 C          63.2431   88.0372   16.6692 C.2     1  UNL1        0.0605
     27 O          63.6841   86.8909   15.8081 O.co2   1  UNL1       -0.5483
     28 O          62.8503   87.7954   18.0965 O.co2   1  UNL1       -0.5483
@<TRIPOS>UNITY_ATOM_ATTR
27 1
charge -1
@<TRIPOS>BOND
     1    24    25    1
     2    25    23    1
     3    23     1    1
     4     1     2   ar
     5     2     3   ar
     6     3     4   ar
     7     4     5   ar
     8     5     6   ar
     9     6     7   ar
    10     7     8   ar
    11     8     9   ar
    12     9    10    1
    13    10    11   ar
    14    11    12   ar
    15    12    13   ar
    16    13    20    1
    17    20    21    1
    18    21    22    1
    19    13    14   ar
    20    14    15   ar
    21    15    16   ar
    22    16    17   ar
    23    17    18   ar
    24    18    19   ar
    25    25    26    1
    26    26    27   ar
    27    26    28   ar
    28     9     1   ar
    29    19    10   ar
    30     8     3   ar
    31    22    20    1
    32    19    14   ar
@<TRIPOS>MOLECULE
*****
 28 32 0 0 0
SMALL
GASTEIGER

@<TRIPOS>ATOM
      1 C          63.7939   87.8033   13.5248 C.ar    1  UNL1        0.1755
      2 N          64.4465   86.9819   14.5969 N.ar    1  UNL1       -0.2192
      3 C          64.0476   85.5506   14.3916 C.ar    1  UNL1        0.1186
      4 C          64.3870   84.2966   15.1415 C.ar    1  UNL1        0.1194
      5 N          63.8272   82.9795   14.6924 N.ar    1  UNL1       -0.2406
      6 C          62.9280   82.9163   13.4935 C.ar    1  UNL1        0.1005
      7 C          62.5886   84.1703   12.7436 C.ar    1  UNL1        0.0398
      8 C          63.1484   85.4874   13.1927 C.ar    1  UNL1        0.0865
      9 N          62.9916   86.8797   12.6570 N.ar    1  UNL1       -0.2853
     10 C          62.1757   87.2783   11.4630 C.ar    1  UNL1        0.0658
     11 C          61.2700   88.4716   11.5381 C.ar    1  UNL1        0.0173
     12 C          60.4542   88.8703   10.3442 C.ar    1  UNL1       -0.0028
     13 C          60.5440   88.0755    9.0752 C.ar    1  UNL1       -0.0224
     14 C          61.4497   86.8821    9.0001 C.ar    1  UNL1       -0.0026
     15 C          61.5395   86.0874    7.7311 C.ar    1  UNL1       -0.0003
     16 C          62.4452   84.8941    7.6561 C.ar    1  UNL1       -0.0000
     17 C          63.2610   84.4955    8.8500 C.ar    1  UNL1        0.0000
     18 C          63.1712   85.2902   10.1190 C.ar    1  UNL1        0.0014
     19 C          62.2655   86.4835   10.1940 C.ar    1  UNL1        0.0159
     20 C          59.7281   88.4742    7.8813 C.3     1  UNL1        0.0224
     21 C          58.5876   88.2151    6.9421 C.3     1  UNL1        0.0047
     22 C          59.4555   89.4237    6.7525 C.3     1  UNL1        0.0047
     23 S          63.9211   89.2878   13.3512 S.3     1  UNL1       -0.0722
     24 C          65.7312   90.7496   14.5074 C.3     1  UNL1        0.0181
     25 C          64.3594   90.1430   14.5029 C.3     1  UNL1        0.0910
     26 C          63.4257   90.3915   15.6504 C.2     1  UNL1        0.0605
     27 O          62.3485   89.3976   15.9696 O.co2   1  UNL1       -0.5483
     28 O          63.5691   91.6339   16.4785 O.co2   1  UNL1       -0.5483
@<TRIPOS>UNITY_ATOM_ATTR
27 1
charge -1
@<TRIPOS>BOND
     1    24    25    1
     2    25    23    1
     3    23     1    1
     4     1     2   ar
     5     2     3   ar
     6     3     4   ar
     7     4     5   ar
     8     5     6   ar
     9     6     7   ar
    10     7     8   ar
    11     8     9   ar
    12     9    10    1
    13    10    11   ar
    14    11    12   ar
    15    12    13   ar
    16    13    20    1
    17    20    21    1
    18    21    22    1
    19    13    14   ar
    20    14    15   ar
    21    15    16   ar
    22    16    17   ar
    23    17    18   ar
    24    18    19   ar
    25    25    26    1
    26    26    27   ar
    27    26    28   ar
    28     9     1   ar
    29    19    10   ar
    30     8     3   ar
    31    22    20    1
    32    19    14   ar
@<TRIPOS>MOLECULE
*****
 28 32 0 0 0
SMALL
GASTEIGER

@<TRIPOS>ATOM
      1 C          62.7647   84.4776   13.8482 C.ar    1  UNL1        0.1755
      2 N          63.0411   85.1259   15.1723 N.ar    1  UNL1       -0.2192
      3 C          63.4253   86.5534   14.9182 C.ar    1  UNL1        0.1186
      4 C          63.8056   87.6706   15.8442 C.ar    1  UNL1        0.1194
      5 N          64.1470   89.0215   15.2890 N.ar    1  UNL1       -0.2406
      6 C          64.1081   89.2554   13.8078 C.ar    1  UNL1        0.1005
      7 C          63.7278   88.1383   12.8819 C.ar    1  UNL1        0.0398
      8 C          63.3864   86.7873   13.4371 C.ar    1  UNL1        0.0865
      9 N          62.9782   85.5044   12.7757 N.ar    1  UNL1       -0.2853
     10 C          62.8124   85.2865   11.3009 C.ar    1  UNL1        0.0658
     11 C          63.6687   84.2805   10.5905 C.ar    1  UNL1        0.0173
     12 C          63.5030   84.0626    9.1157 C.ar    1  UNL1       -0.0028
     13 C          62.4809   84.8507    8.3513 C.ar    1  UNL1       -0.0224
     14 C          61.6246   85.8567    9.0617 C.ar    1  UNL1       -0.0026
     15 C          60.6025   86.6448    8.2973 C.ar    1  UNL1       -0.0003
     16 C          59.7462   87.6507    9.0078 C.ar    1  UNL1       -0.0000
     17 C          59.9119   87.8686   10.4826 C.ar    1  UNL1        0.0000
     18 C          60.9340   87.0806   11.2470 C.ar    1  UNL1        0.0014
     19 C          61.7903   86.0746   10.5365 C.ar    1  UNL1        0.0159
     20 C          62.3152   84.6328    6.8765 C.3     1  UNL1        0.0224
     21 C          62.8562   84.7267    5.4806 C.3     1  UNL1        0.0047
     22 C          61.4872   84.1615    5.7180 C.3     1  UNL1        0.0047
     23 S          62.3481   83.0526   13.6341 S.3     1  UNL1       -0.0722
     24 C          64.8027   82.2653   13.3107 C.3     1  UNL1        0.0181
     25 C          63.3327   82.0554   13.0992 C.3     1  UNL1        0.0910
     26 C          62.8471   80.8483   12.3527 C.2     1  UNL1        0.0605
     27 O          62.9483   80.8006   10.8569 O.co2   1  UNL1       -0.5483
     28 O          62.2603   79.6889   13.1021 O.co2   1  UNL1       -0.5483
@<TRIPOS>UNITY_ATOM_ATTR
27 1
charge -1
@<TRIPOS>BOND
     1    24    25    1
     2    25    23    1
     3    23     1    1
     4     1     2   ar
     5     2     3   ar
     6     3     4   ar
     7     4     5   ar
     8     5     6   ar
     9     6     7   ar
    10     7     8   ar
    11     8     9   ar
    12     9    10    1
    13    10    11   ar
    14    11    12   ar
    15    12    13   ar
    16    13    20    1
    17    20    21    1
    18    21    22    1
    19    13    14   ar
    20    14    15   ar
    21    15    16   ar
    22    16    17   ar
    23    17    18   ar
    24    18    19   ar
    25    25    26    1
    26    26    27   ar
    27    26    28   ar
    28     9     1   ar
    29    19    10   ar
    30     8     3   ar
    31    22    20    1
    32    19    14   ar
@<TRIPOS>MOLECULE
*****
 28 32 0 0 0
SMALL
GASTEIGER

@<TRIPOS>ATOM
      1 C          62.5075   86.0449   11.6192 C.ar    1  UNL1        0.1755
      2 N          61.5637   85.4969   10.5901 N.ar    1  UNL1       -0.2192
      3 C          60.9151   86.6555    9.8924 C.ar    1  UNL1        0.1186
      4 C          59.9002   86.7229    8.7899 C.ar    1  UNL1        0.1194
      5 N          59.4283   88.0543    8.2853 N.ar    1  UNL1       -0.2406
      6 C          59.9712   89.3183    8.8831 C.ar    1  UNL1        0.1005
      7 C          60.9861   89.2510    9.9856 C.ar    1  UNL1        0.0398
      8 C          61.4580   87.9196   10.4902 C.ar    1  UNL1        0.0865
      9 N          62.4422   87.5422   11.5575 N.ar    1  UNL1       -0.2853
     10 C          63.2238   88.4948   12.4128 C.ar    1  UNL1        0.0658
     11 C          63.6026   88.1088   13.8119 C.ar    1  UNL1        0.0173
     12 C          64.3842   89.0615   14.6672 C.ar    1  UNL1       -0.0028
     13 C          64.7871   90.4001   14.1234 C.ar    1  UNL1       -0.0224
     14 C          64.4083   90.7862   12.7242 C.ar    1  UNL1       -0.0026
     15 C          64.8112   92.1248   12.1804 C.ar    1  UNL1       -0.0003
     16 C          64.4324   92.5108   10.7814 C.ar    1  UNL1       -0.0000
     17 C          63.6508   91.5581    9.9260 C.ar    1  UNL1        0.0000
     18 C          63.2479   90.2195   10.4698 C.ar    1  UNL1        0.0014
     19 C          63.6267   89.8335   11.8689 C.ar    1  UNL1        0.0159
     20 C          65.5687   91.3527   14.9787 C.3     1  UNL1        0.0224
     21 C          66.8692   92.0074   15.3392 C.3     1  UNL1        0.0047
     22 C          65.6219   92.3481   16.0996 C.3     1  UNL1        0.0047
     23 S          63.3659   85.2373   12.5470 S.3     1  UNL1       -0.0722
     24 C          62.9578   82.7375   11.9689 C.3     1  UNL1        0.0181
     25 C          62.9346   83.8617   12.9615 C.3     1  UNL1        0.0910
     26 C          62.4801   83.6105   14.3688 C.2     1  UNL1        0.0605
     27 O          62.6199   82.2431   14.9693 O.co2   1  UNL1       -0.5483
     28 O          61.8859   84.7268   15.1756 O.co2   1  UNL1       -0.5483
@<TRIPOS>UNITY_ATOM_ATTR
27 1
charge -1
@<TRIPOS>BOND
     1    24    25    1
     2    25    23    1
     3    23     1    1
     4     1     2   ar
     5     2     3   ar
     6     3     4   ar
     7     4     5   ar
     8     5     6   ar
     9     6     7   ar
    10     7     8   ar
    11     8     9   ar
    12     9    10    1
    13    10    11   ar
    14    11    12   ar
    15    12    13   ar
    16    13    20    1
    17    20    21    1
    18    21    22    1
    19    13    14   ar
    20    14    15   ar
    21    15    16   ar
    22    16    17   ar
    23    17    18   ar
    24    18    19   ar
    25    25    26    1
    26    26    27   ar
    27    26    28   ar
    28     9     1   ar
    29    19    10   ar
    30     8     3   ar
    31    22    20    1
    32    19    14   ar
@<TRIPOS>MOLECULE
*****
 28 32 0 0 0
SMALL
GASTEIGER

@<TRIPOS>ATOM
      1 C          63.2405   87.2180   12.6844 C.ar    1  UNL1        0.1755
      2 N          63.4297   87.0738   14.1654 N.ar    1  UNL1       -0.2192
      3 C          63.2981   85.6199   14.5101 C.ar    1  UNL1        0.1186
      4 C          63.3896   84.8854   15.8148 C.ar    1  UNL1        0.1194
      5 N          63.2106   83.3966   15.8515 N.ar    1  UNL1       -0.2406
      6 C          62.9401   82.6423   14.5835 C.ar    1  UNL1        0.1005
      7 C          62.8486   83.3767   13.2788 C.ar    1  UNL1        0.0398
      8 C          63.0275   84.8655   13.2421 C.ar    1  UNL1        0.0865
      9 N          62.9919   85.8532   12.1138 N.ar    1  UNL1       -0.2853
     10 C          62.7503   85.5324   10.6685 C.ar    1  UNL1        0.0658
     11 C          63.6682   84.5921    9.9453 C.ar    1  UNL1        0.0173
     12 C          63.4266   84.2713    8.5001 C.ar    1  UNL1       -0.0028
     13 C          62.2669   84.8908    7.7781 C.ar    1  UNL1       -0.0224
     14 C          61.3488   85.8312    8.5013 C.ar    1  UNL1       -0.0026
     15 C          60.1891   86.4506    7.7793 C.ar    1  UNL1       -0.0003
     16 C          59.2711   87.3909    8.5025 C.ar    1  UNL1       -0.0000
     17 C          59.5128   87.7117    9.9478 C.ar    1  UNL1        0.0000
     18 C          60.6725   87.0922   10.6698 C.ar    1  UNL1        0.0014
     19 C          61.5905   86.1519    9.9465 C.ar    1  UNL1        0.0159
     20 C          62.0252   84.5700    6.3329 C.3     1  UNL1        0.0224
     21 C          62.4104   84.7074    4.8897 C.3     1  UNL1        0.0047
     22 C          61.2214   83.8770    5.2729 C.3     1  UNL1        0.0047
     23 S          63.2909   88.5016   11.9099 S.3     1  UNL1       -0.0722
     24 C          61.3039   90.1752   11.9301 C.3     1  UNL1        0.0181
     25 C          62.6367   89.7349   12.4586 C.3     1  UNL1        0.0910
     26 C          63.3157   90.5279   13.5358 C.2     1  UNL1        0.0605
     27 O          64.3016   91.5979   13.1711 O.co2   1  UNL1       -0.5483
     28 O          63.0086   90.2508   14.9777 O.co2   1  UNL1       -0.5483
@<TRIPOS>UNITY_ATOM_ATTR
27 1
charge -1
@<TRIPOS>BOND
     1    24    25    1
     2    25    23    1
     3    23     1    1
     4     1     2   ar
     5     2     3   ar
     6     3     4   ar
     7     4     5   ar
     8     5     6   ar
     9     6     7   ar
    10     7     8   ar
    11     8     9   ar
    12     9    10    1
    13    10    11   ar
    14    11    12   ar
    15    12    13   ar
    16    13    20    1
    17    20    21    1
    18    21    22    1
    19    13    14   ar
    20    14    15   ar
    21    15    16   ar
    22    16    17   ar
    23    17    18   ar
    24    18    19   ar
    25    25    26    1
    26    26    27   ar
    27    26    28   ar
    28     9     1   ar
    29    19    10   ar
    30     8     3   ar
    31    22    20    1
    32    19    14   ar
@<TRIPOS>MOLECULE
*****
 28 32 0 0 0
SMALL
GASTEIGER

@<TRIPOS>ATOM
      1 C          59.7842   95.2957   -2.8392 C.ar    1  UNL1        0.1755
      2 N          59.7453   95.7385   -4.2718 N.ar    1  UNL1       -0.2192
      3 C          60.8908   95.0881   -4.9893 C.ar    1  UNL1        0.1186
      4 C          61.3503   95.1559   -6.4155 C.ar    1  UNL1        0.1194
      5 N          62.5566   94.3789   -6.8525 N.ar    1  UNL1       -0.2406
      6 C          63.3034   93.5341   -5.8633 C.ar    1  UNL1        0.1005
      7 C          62.8439   93.4662   -4.4370 C.ar    1  UNL1        0.0398
      8 C          61.6376   94.2432   -4.0000 C.ar    1  UNL1        0.0865
      9 N          60.9536   94.3716   -2.6712 N.ar    1  UNL1       -0.2853
     10 C          61.3667   93.6946   -1.3980 C.ar    1  UNL1        0.0658
     11 C          60.5170   92.6022   -0.8195 C.ar    1  UNL1        0.0173
     12 C          60.9300   91.9253    0.4537 C.ar    1  UNL1       -0.0028
     13 C          62.1928   92.3407    1.1485 C.ar    1  UNL1       -0.0224
     14 C          63.0426   93.4331    0.5701 C.ar    1  UNL1       -0.0026
     15 C          64.3054   93.8485    1.2648 C.ar    1  UNL1       -0.0003
     16 C          65.1551   94.9409    0.6864 C.ar    1  UNL1       -0.0000
     17 C          64.7421   95.6178   -0.5868 C.ar    1  UNL1        0.0000
     18 C          63.4793   95.2024   -1.2816 C.ar    1  UNL1        0.0014
     19 C          62.6296   94.1101   -0.7032 C.ar    1  UNL1        0.0159
     20 C          62.6058   91.6637    2.4217 C.3     1  UNL1        0.0224
     21 C          62.3333   91.3143    3.8547 C.3     1  UNL1        0.0047
     22 C          63.5938   90.8406    3.1940 C.3     1  UNL1        0.0047
     23 S          58.8224   95.7052   -1.7634 S.3     1  UNL1       -0.0722
     24 C          56.2583   96.0321   -1.5018 C.3     1  UNL1        0.0181
     25 C          57.4356   95.1338   -1.7398 C.3     1  UNL1        0.0910
     26 C          57.2264   93.6640   -1.9544 C.2     1  UNL1        0.0605
     27 O          57.4156   93.0708   -3.3190 O.co2   1  UNL1       -0.5483
     28 O          56.8278   92.7874   -0.8042 O.co2   1  UNL1       -0.5483
@<TRIPOS>UNITY_ATOM_ATTR
27 1
charge -1
@<TRIPOS>BOND
     1    24    25    1
     2    25    23    1
     3    23     1    1
     4     1     2   ar
     5     2     3   ar
     6     3     4   ar
     7     4     5   ar
     8     5     6   ar
     9     6     7   ar
    10     7     8   ar
    11     8     9   ar
    12     9    10    1
    13    10    11   ar
    14    11    12   ar
    15    12    13   ar
    16    13    20    1
    17    20    21    1
    18    21    22    1
    19    13    14   ar
    20    14    15   ar
    21    15    16   ar
    22    16    17   ar
    23    17    18   ar
    24    18    19   ar
    25    25    26    1
    26    26    27   ar
    27    26    28   ar
    28     9     1   ar
    29    19    10   ar
    30     8     3   ar
    31    22    20    1
    32    19    14   ar
@<TRIPOS>MOLECULE
*****
 28 32 0 0 0
SMALL
GASTEIGER

@<TRIPOS>ATOM
      1 C          61.4717   93.2469   -0.9408 C.ar    1  UNL1        0.1755
      2 N          62.8987   93.1552   -1.3939 N.ar    1  UNL1       -0.2192
      3 C          63.0822   94.1026   -2.5423 C.ar    1  UNL1        0.1186
      4 C          64.2757   94.4361   -3.3874 C.ar    1  UNL1        0.1194
      5 N          64.1555   95.4469   -4.4892 N.ar    1  UNL1       -0.2406
      6 C          62.8419   96.1241   -4.7458 C.ar    1  UNL1        0.1005
      7 C          61.6485   95.7906   -3.9007 C.ar    1  UNL1        0.0398
      8 C          61.7686   94.7798   -2.7989 C.ar    1  UNL1        0.0865
      9 N          60.7732   94.2510   -1.8092 N.ar    1  UNL1       -0.2853
     10 C          59.3324   94.6552   -1.7059 C.ar    1  UNL1        0.0658
     11 C          58.9506   95.8783   -0.9259 C.ar    1  UNL1        0.0173
     12 C          57.5098   96.2825   -0.8226 C.ar    1  UNL1       -0.0028
     13 C          56.4508   95.4637   -1.4993 C.ar    1  UNL1       -0.0224
     14 C          56.8325   94.2406   -2.2793 C.ar    1  UNL1       -0.0026
     15 C          55.7735   93.4218   -2.9560 C.ar    1  UNL1       -0.0003
     16 C          56.1552   92.1987   -3.7360 C.ar    1  UNL1       -0.0000
     17 C          57.5961   91.7945   -3.8392 C.ar    1  UNL1        0.0000
     18 C          58.6551   92.6133   -3.1626 C.ar    1  UNL1        0.0014
     19 C          58.2733   93.8363   -2.3826 C.ar    1  UNL1        0.0159
     20 C          55.0100   95.8679   -1.3960 C.3     1  UNL1        0.0224
     21 C          53.5742   95.6695   -1.7823 C.3     1  UNL1        0.0047
     22 C          53.9502   96.7666   -0.8309 C.3     1  UNL1        0.0047
     23 S          60.8519   92.4708    0.1833 S.3     1  UNL1       -0.0722
     24 C          62.5427   92.4223    2.1553 C.3     1  UNL1        0.0181
     25 C          61.2001   92.8013    1.6044 C.3     1  UNL1        0.0910
     26 C          60.2053   93.5109    2.4746 C.2     1  UNL1        0.0605
     27 O          59.3458   92.7286    3.4229 O.co2   1  UNL1       -0.5483
     28 O          60.0702   95.0028    2.3964 O.co2   1  UNL1       -0.5483
@<TRIPOS>UNITY_ATOM_ATTR
27 1
charge -1
@<TRIPOS>BOND
     1    24    25    1
     2    25    23    1
     3    23     1    1
     4     1     2   ar
     5     2     3   ar
     6     3     4   ar
     7     4     5   ar
     8     5     6   ar
     9     6     7   ar
    10     7     8   ar
    11     8     9   ar
    12     9    10    1
    13    10    11   ar
    14    11    12   ar
    15    12    13   ar
    16    13    20    1
    17    20    21    1
    18    21    22    1
    19    13    14   ar
    20    14    15   ar
    21    15    16   ar
    22    16    17   ar
    23    17    18   ar
    24    18    19   ar
    25    25    26    1
    26    26    27   ar
    27    26    28   ar
    28     9     1   ar
    29    19    10   ar
    30     8     3   ar
    31    22    20    1
    32    19    14   ar
@<TRIPOS>MOLECULE
*****
 28 32 0 0 0
SMALL
GASTEIGER

@<TRIPOS>ATOM
      1 C          62.9513   86.1898   12.8129 C.ar    1  UNL1        0.1755
      2 N          63.2473   87.1878   13.8930 N.ar    1  UNL1       -0.2192
      3 C          63.3213   88.5463   13.2612 C.ar    1  UNL1        0.1186
      4 C          63.5842   89.9070   13.8349 C.ar    1  UNL1        0.1194
      5 N          63.5968   91.1094   12.9382 N.ar    1  UNL1       -0.2406
      6 C          63.3465   90.9509   11.4677 C.ar    1  UNL1        0.1005
      7 C          63.0836   89.5902   10.8940 C.ar    1  UNL1        0.0398
      8 C          63.0710   88.3878   11.7907 C.ar    1  UNL1        0.0865
      9 N          62.8423   86.9315   11.5137 N.ar    1  UNL1       -0.2853
     10 C          62.5551   86.3236   10.1728 C.ar    1  UNL1        0.0658
     11 C          63.5136   85.3360    9.5762 C.ar    1  UNL1        0.0173
     12 C          63.2264   84.7281    8.2354 C.ar    1  UNL1       -0.0028
     13 C          61.9806   85.1077    7.4911 C.ar    1  UNL1       -0.0224
     14 C          61.0221   86.0953    8.0876 C.ar    1  UNL1       -0.0026
     15 C          59.7763   86.4749    7.3433 C.ar    1  UNL1       -0.0003
     16 C          58.8178   87.4625    7.9399 C.ar    1  UNL1       -0.0000
     17 C          59.1050   88.0704    9.2808 C.ar    1  UNL1        0.0000
     18 C          60.3508   87.6908   10.0251 C.ar    1  UNL1        0.0014
     19 C          61.3093   86.7032    9.4285 C.ar    1  UNL1        0.0159
     20 C          61.6934   84.4998    6.1502 C.3     1  UNL1        0.0224
     21 C          62.0269   84.3444    4.6960 C.3     1  UNL1        0.0047
     22 C          60.8625   83.6022    5.2820 C.3     1  UNL1        0.0047
     23 S          62.7922   84.7100   12.9994 S.3     1  UNL1       -0.0722
     24 C          64.4159   82.9232   12.0399 C.3     1  UNL1        0.0181
     25 C          64.0035   83.8389   13.1540 C.3     1  UNL1        0.0910
     26 C          64.8024   83.8836   14.4228 C.2     1  UNL1        0.0605
     27 O          65.9589   84.8306   14.5479 O.co2   1  UNL1       -0.5483
     28 O          64.4447   82.9813   15.5665 O.co2   1  UNL1       -0.5483
@<TRIPOS>UNITY_ATOM_ATTR
27 1
charge -1
@<TRIPOS>BOND
     1    24    25    1
     2    25    23    1
     3    23     1    1
     4     1     2   ar
     5     2     3   ar
     6     3     4   ar
     7     4     5   ar
     8     5     6   ar
     9     6     7   ar
    10     7     8   ar
    11     8     9   ar
    12     9    10    1
    13    10    11   ar
    14    11    12   ar
    15    12    13   ar
    16    13    20    1
    17    20    21    1
    18    21    22    1
    19    13    14   ar
    20    14    15   ar
    21    15    16   ar
    22    16    17   ar
    23    17    18   ar
    24    18    19   ar
    25    25    26    1
    26    26    27   ar
    27    26    28   ar
    28     9     1   ar
    29    19    10   ar
    30     8     3   ar
    31    22    20    1
    32    19    14   ar
