@<TRIPOS>MOLECULE
*****
 34 38 0 0 0
SMALL
GASTEIGER

@<TRIPOS>ATOM
      1 C          66.1139   93.9718   12.5981 C.ar    1  UNL1       -0.0199
      2 C          66.7935   93.4567   13.8321 C.ar    1  UNL1        0.0269
      3 C          66.4652   92.0892   14.3538 C.ar    1  UNL1        0.1573
      4 F          67.1448   91.5741   15.5879 F       1  UNL1       -0.2026
      5 C          65.4573   91.2367   13.6414 C.ar    1  UNL1        0.1097
      6 N          65.1290   89.8692   14.1631 N.ar    1  UNL1       -0.2283
      7 C          64.1211   89.0168   13.4507 C.ar    1  UNL1        0.1359
      8 C          63.4415   89.5319   12.2166 C.ar    1  UNL1        0.0837
      9 C          63.7698   90.8994   11.6950 C.ar    1  UNL1       -0.0130
     10 C          63.0903   91.4144   10.4610 C.3     1  UNL1        0.0313
     11 C          64.7778   91.7518   12.4074 C.ar    1  UNL1        0.0159
     12 C          65.1061   93.1193   11.8857 C.ar    1  UNL1       -0.0029
     13 N          63.7928   87.6493   13.9724 N.pl3   1  UNL1       -0.2930
     14 C          63.4688   86.5397   13.0164 C.3     1  UNL1        0.0935
     15 C          63.1405   85.1722   13.5380 C.3     1  UNL1        0.0372
     16 C          63.1362   84.9143   15.0157 C.3     1  UNL1        0.0574
     17 C          63.4602   86.0238   15.9717 C.3     1  UNL1        0.0372
     18 C          63.7885   87.3913   15.4500 C.3     1  UNL1        0.0935
     19 N          62.8079   83.5468   15.5374 N.3     1  UNL1       -0.2994
     20 H          61.9042   83.6191   16.0049 H       1  UNL1        0.1232
     21 C          62.7146   82.3859   14.5920 C.3     1  UNL1        0.0590
     22 C          63.8832   82.0326   13.7205 C.3     1  UNL1        0.0478
     23 C          63.7899   80.8717   12.7751 C.3     1  UNL1        0.1435
     24 O          62.5280   80.0641   12.7013 O.3     1  UNL1       -0.3537
     25 C          61.3594   80.4174   13.5729 C.3     1  UNL1        0.1435
     26 C          61.4527   81.5783   14.5182 C.3     1  UNL1        0.0478
     27 C          62.4336   88.6794   11.5043 C.ar    1  UNL1        0.2621
     28 N          62.6674   87.9094   10.2384 N.ar    1  UNL1       -0.1910
     29 C          61.3933   87.2014    9.8845 C.ar    1  UNL1        0.1812
     30 C          61.1782   86.3163    8.6927 C.3     1  UNL1        0.0773
     31 N          60.3720   87.5339   10.9317 N.ar    1  UNL1       -0.0602
     32 O          61.0150   88.4474   11.9327 O.2     1  UNL1       -0.3327
     33 C          66.4504   95.5963   10.5987 C.3     1  UNL1        0.0050
     34 C          66.4423   95.3393   12.0764 C.3     1  UNL1        0.0264
@<TRIPOS>BOND
     1    33    34    1
     2    34     1    1
     3     1     2   ar
     4     2     3   ar
     5     3     4    1
     6     3     5   ar
     7     5     6   ar
     8     6     7   ar
     9     7    13    1
    10    13    14    1
    11    14    15    1
    12    15    16    1
    13    16    19    1
    14    19    21    1
    15    21    22    1
    16    22    23    1
    17    23    24    1
    18    24    25    1
    19    25    26    1
    20    16    17    1
    21    17    18    1
    22     7     8   ar
    23     8    27    1
    24    27    28   ar
    25    28    29   ar
    26    29    30    1
    27    29    31   ar
    28    31    32   ar
    29     8     9   ar
    30     9    10    1
    31     9    11   ar
    32    11    12   ar
    33    12     1   ar
    34    11     5   ar
    35    18    13    1
    36    32    27   ar
    37    26    21    1
    38    19    20    1
@<TRIPOS>MOLECULE
*****
 34 38 0 0 0
SMALL
GASTEIGER

@<TRIPOS>ATOM
      1 C          63.0147   80.4292   11.0208 C.ar    1  UNL1       -0.0199
      2 C          63.6165   81.2606    9.9269 C.ar    1  UNL1        0.0269
      3 C          63.8400   82.7289   10.1374 C.ar    1  UNL1        0.1573
      4 F          64.4417   83.5603    9.0434 F       1  UNL1       -0.2026
      5 C          63.4617   83.3657   11.4417 C.ar    1  UNL1        0.1097
      6 N          63.6852   84.8340   11.6521 N.ar    1  UNL1       -0.2283
      7 C          63.3069   85.4709   12.9564 C.ar    1  UNL1        0.1359
      8 C          62.7051   84.6394   14.0504 C.ar    1  UNL1        0.0837
      9 C          62.4817   83.1712   13.8400 C.ar    1  UNL1       -0.0130
     10 C          61.8799   82.3398   14.9338 C.3     1  UNL1        0.0313
     11 C          62.8600   82.5343   12.5355 C.ar    1  UNL1        0.0159
     12 C          62.6365   81.0661   12.3251 C.ar    1  UNL1       -0.0029
     13 N          63.5304   86.9391   13.1668 N.pl3   1  UNL1       -0.2930
     14 C          62.9905   87.9293   12.1778 C.3     1  UNL1        0.0935
     15 C          63.2140   89.3975   12.3882 C.3     1  UNL1        0.0372
     16 C          63.9774   89.8756   13.5877 C.3     1  UNL1        0.0574
     17 C          64.5172   88.8855   14.5767 C.3     1  UNL1        0.0372
     18 C          64.2937   87.4172   14.3663 C.3     1  UNL1        0.0935
     19 N          64.2009   91.3439   13.7981 N.3     1  UNL1       -0.2994
     20 H          63.4978   91.6557   14.4682 H       1  UNL1        0.1232
     21 C          65.5259   91.8365   14.3000 C.3     1  UNL1        0.0590
     22 C          66.7125   91.8630   13.3828 C.3     1  UNL1        0.0478
     23 C          68.0375   92.3556   13.8847 C.3     1  UNL1        0.1435
     24 O          68.1758   92.8217   15.3037 O.3     1  UNL1       -0.3537
     25 C          66.9891   92.7951   16.2209 C.3     1  UNL1        0.1435
     26 C          65.6642   92.3026   15.7190 C.3     1  UNL1        0.0478
     27 C          62.3269   85.2763   15.3547 C.ar    1  UNL1        0.2621
     28 N          63.2765   85.7156   16.4296 N.ar    1  UNL1       -0.1910
     29 C          62.4691   86.2965   17.5524 C.ar    1  UNL1        0.1812
     30 C          63.0145   86.8589   18.8315 C.3     1  UNL1        0.0773
     31 N          61.0205   86.2162   17.1714 N.ar    1  UNL1       -0.0602
     32 O          60.9326   85.5857   15.8132 O.2     1  UNL1       -0.3327
     33 C          63.2047   78.3167    9.5205 C.3     1  UNL1        0.0050
     34 C          62.7913   78.9610   10.8104 C.3     1  UNL1        0.0264
@<TRIPOS>BOND
     1    33    34    1
     2    34     1    1
     3     1     2   ar
     4     2     3   ar
     5     3     4    1
     6     3     5   ar
     7     5     6   ar
     8     6     7   ar
     9     7    13    1
    10    13    14    1
    11    14    15    1
    12    15    16    1
    13    16    19    1
    14    19    21    1
    15    21    22    1
    16    22    23    1
    17    23    24    1
    18    24    25    1
    19    25    26    1
    20    16    17    1
    21    17    18    1
    22     7     8   ar
    23     8    27    1
    24    27    28   ar
    25    28    29   ar
    26    29    30    1
    27    29    31   ar
    28    31    32   ar
    29     8     9   ar
    30     9    10    1
    31     9    11   ar
    32    11    12   ar
    33    12     1   ar
    34    11     5   ar
    35    18    13    1
    36    32    27   ar
    37    26    21    1
    38    19    20    1
@<TRIPOS>MOLECULE
*****
 34 38 0 0 0
SMALL
GASTEIGER

@<TRIPOS>ATOM
      1 C          63.0605   81.1524   11.9481 C.ar    1  UNL1       -0.0199
      2 C          63.8089   81.2295   13.2457 C.ar    1  UNL1        0.0269
      3 C          64.0695   82.5621   13.8833 C.ar    1  UNL1        0.1573
      4 F          64.8180   82.6391   15.1809 F       1  UNL1       -0.2026
      5 C          63.5815   83.8175   13.2232 C.ar    1  UNL1        0.1097
      6 N          63.8420   85.1501   13.8607 N.ar    1  UNL1       -0.2283
      7 C          63.3541   86.4055   13.2007 C.ar    1  UNL1        0.1359
      8 C          62.6056   86.3284   11.9030 C.ar    1  UNL1        0.0837
      9 C          62.3450   84.9959   11.2655 C.ar    1  UNL1       -0.0130
     10 C          61.5966   84.9188    9.9679 C.3     1  UNL1        0.0313
     11 C          62.8330   83.7404   11.9256 C.ar    1  UNL1        0.0159
     12 C          62.5725   82.4079   11.2881 C.ar    1  UNL1       -0.0029
     13 N          63.6146   87.7380   13.8382 N.pl3   1  UNL1       -0.2930
     14 C          63.8993   88.9363   12.9819 C.3     1  UNL1        0.0935
     15 C          64.1598   90.2689   13.6195 C.3     1  UNL1        0.0372
     16 C          64.1357   90.4031   15.1133 C.3     1  UNL1        0.0574
     17 C          63.8510   89.2049   15.9695 C.3     1  UNL1        0.0372
     18 C          63.5905   87.8724   15.3320 C.3     1  UNL1        0.0935
     19 N          64.3962   91.7357   15.7508 N.3     1  UNL1       -0.2994
     20 H          64.3782   91.5879   16.7599 H       1  UNL1        0.1232
     21 C          65.6627   92.4789   15.4445 C.3     1  UNL1        0.0590
     22 C          66.7608   92.5417   16.4644 C.3     1  UNL1        0.0478
     23 C          68.0273   93.2848   16.1581 C.3     1  UNL1        0.1435
     24 O          68.1956   93.9652   14.8319 O.3     1  UNL1       -0.3537
     25 C          67.0974   93.9024   13.8120 C.3     1  UNL1        0.1435
     26 C          65.8310   93.1592   14.1183 C.3     1  UNL1        0.0478
     27 C          62.1176   87.5839   11.2430 C.ar    1  UNL1        0.2621
     28 N          60.9555   88.4205   11.6897 N.ar    1  UNL1       -0.1910
     29 C          60.8257   89.5768   10.7431 C.ar    1  UNL1        0.1812
     30 C          59.7950   90.6642   10.8155 C.3     1  UNL1        0.0773
     31 N          61.9077   89.4549    9.7113 N.ar    1  UNL1       -0.0602
     32 O          62.7061   88.2232   10.0203 O.2     1  UNL1       -0.3327
     33 C          62.8173   79.6870    9.8166 C.3     1  UNL1        0.0050
     34 C          62.8000   79.8199   11.3106 C.3     1  UNL1        0.0264
@<TRIPOS>BOND
     1    33    34    1
     2    34     1    1
     3     1     2   ar
     4     2     3   ar
     5     3     4    1
     6     3     5   ar
     7     5     6   ar
     8     6     7   ar
     9     7    13    1
    10    13    14    1
    11    14    15    1
    12    15    16    1
    13    16    19    1
    14    19    21    1
    15    21    22    1
    16    22    23    1
    17    23    24    1
    18    24    25    1
    19    25    26    1
    20    16    17    1
    21    17    18    1
    22     7     8   ar
    23     8    27    1
    24    27    28   ar
    25    28    29   ar
    26    29    30    1
    27    29    31   ar
    28    31    32   ar
    29     8     9   ar
    30     9    10    1
    31     9    11   ar
    32    11    12   ar
    33    12     1   ar
    34    11     5   ar
    35    18    13    1
    36    32    27   ar
    37    26    21    1
    38    19    20    1
@<TRIPOS>MOLECULE
*****
 34 38 0 0 0
SMALL
GASTEIGER

@<TRIPOS>ATOM
      1 C          62.9966   80.2198   11.0948 C.ar    1  UNL1       -0.0199
      2 C          63.5212   81.0303    9.9469 C.ar    1  UNL1        0.0269
      3 C          63.6885   82.5140   10.0909 C.ar    1  UNL1        0.1573
      4 F          64.2131   83.3245    8.9429 F       1  UNL1       -0.2026
      5 C          63.3313   83.1871   11.3829 C.ar    1  UNL1        0.1097
      6 N          63.4986   84.6707   11.5270 N.ar    1  UNL1       -0.2283
      7 C          63.1414   85.3438   12.8190 C.ar    1  UNL1        0.1359
      8 C          62.6168   84.5333   13.9670 C.ar    1  UNL1        0.0837
      9 C          62.4494   83.0496   13.8229 C.ar    1  UNL1       -0.0130
     10 C          61.9248   82.2391   14.9708 C.3     1  UNL1        0.0313
     11 C          62.8067   82.3765   12.5308 C.ar    1  UNL1        0.0159
     12 C          62.6393   80.8929   12.3868 C.ar    1  UNL1       -0.0029
     13 N          63.3087   86.8275   12.9630 N.pl3   1  UNL1       -0.2930
     14 C          62.6798   87.7537   11.9646 C.3     1  UNL1        0.0935
     15 C          62.8472   89.2373   12.1087 C.3     1  UNL1        0.0372
     16 C          63.6434   89.7948   13.2512 C.3     1  UNL1        0.0574
     17 C          64.2723   88.8687   14.2495 C.3     1  UNL1        0.0372
     18 C          64.1050   87.3850   14.1054 C.3     1  UNL1        0.0935
     19 N          63.8108   91.2785   13.3952 N.3     1  UNL1       -0.2994
     20 H          63.8676   91.4727   14.3950 H       1  UNL1        0.1232
     21 C          64.9785   91.9674   12.7533 C.3     1  UNL1        0.0590
     22 C          66.1596   92.3729   13.5842 C.3     1  UNL1        0.0478
     23 C          67.3272   93.0618   12.9422 C.3     1  UNL1        0.1435
     24 O          67.3137   93.3451   11.4693 O.3     1  UNL1       -0.3537
     25 C          66.1325   92.9395   10.6383 C.3     1  UNL1        0.1435
     26 C          64.9650   92.2507   11.2803 C.3     1  UNL1        0.0478
     27 C          62.2595   85.2064   15.2589 C.ar    1  UNL1        0.2621
     28 N          63.2250   85.6576   16.3145 N.ar    1  UNL1       -0.1910
     29 C          62.4363   86.2765   17.4302 C.ar    1  UNL1        0.1812
     30 C          63.0013   86.8615   18.6905 C.3     1  UNL1        0.0773
     31 N          60.9832   86.2078   17.0641 N.ar    1  UNL1       -0.0602
     32 O          60.8740   85.5465   15.7222 O.2     1  UNL1       -0.3327
     33 C          63.2060   78.0601    9.6658 C.3     1  UNL1        0.0050
     34 C          62.8292   78.7361   10.9507 C.3     1  UNL1        0.0264
@<TRIPOS>BOND
     1    33    34    1
     2    34     1    1
     3     1     2   ar
     4     2     3   ar
     5     3     4    1
     6     3     5   ar
     7     5     6   ar
     8     6     7   ar
     9     7    13    1
    10    13    14    1
    11    14    15    1
    12    15    16    1
    13    16    19    1
    14    19    21    1
    15    21    22    1
    16    22    23    1
    17    23    24    1
    18    24    25    1
    19    25    26    1
    20    16    17    1
    21    17    18    1
    22     7     8   ar
    23     8    27    1
    24    27    28   ar
    25    28    29   ar
    26    29    30    1
    27    29    31   ar
    28    31    32   ar
    29     8     9   ar
    30     9    10    1
    31     9    11   ar
    32    11    12   ar
    33    12     1   ar
    34    11     5   ar
    35    18    13    1
    36    32    27   ar
    37    26    21    1
    38    19    20    1
@<TRIPOS>MOLECULE
*****
 34 38 0 0 0
SMALL
GASTEIGER

@<TRIPOS>ATOM
      1 C          59.6512   90.0117    6.4313 C.ar    1  UNL1       -0.0199
      2 C          58.2378   90.4604    6.2057 C.ar    1  UNL1        0.0269
      3 C          57.9136   91.3691    5.0572 C.ar    1  UNL1        0.1573
      4 F          56.5001   91.8178    4.8317 F       1  UNL1       -0.2026
      5 C          59.0028   91.8292    4.1343 C.ar    1  UNL1        0.1097
      6 N          58.6786   92.7380    2.9858 N.ar    1  UNL1       -0.2283
      7 C          59.7678   93.1981    2.0629 C.ar    1  UNL1        0.1359
      8 C          61.1813   92.7495    2.2884 C.ar    1  UNL1        0.0837
      9 C          61.5055   91.8407    3.4369 C.ar    1  UNL1       -0.0130
     10 C          62.9189   91.3920    3.6624 C.3     1  UNL1        0.0313
     11 C          60.4162   91.3806    4.3599 C.ar    1  UNL1        0.0159
     12 C          60.7404   90.4718    5.5083 C.ar    1  UNL1       -0.0029
     13 N          59.4436   94.1069    0.9144 N.pl3   1  UNL1       -0.2930
     14 C          58.8072   93.5513   -0.3251 C.3     1  UNL1        0.0935
     15 C          58.4830   94.4601   -1.4736 C.3     1  UNL1        0.0372
     16 C          58.7952   95.9244   -1.3826 C.3     1  UNL1        0.0574
     17 C          59.4316   96.4800   -0.1431 C.3     1  UNL1        0.0372
     18 C          59.7558   95.5712    1.0054 C.3     1  UNL1        0.0935
     19 N          58.4710   96.8332   -2.5311 N.3     1  UNL1       -0.2994
     20 H          59.2428   96.7572   -3.1937 H       1  UNL1        0.1232
     21 C          57.2071   96.6316   -3.3134 C.3     1  UNL1        0.0590
     22 C          57.2743   96.2055   -4.7500 C.3     1  UNL1        0.0478
     23 C          56.0104   96.0038   -5.5324 C.3     1  UNL1        0.1435
     24 O          54.6794   96.2282   -4.8780 O.3     1  UNL1       -0.3537
     25 C          54.6123   96.6544   -3.4413 C.3     1  UNL1        0.1435
     26 C          55.8762   96.8560   -2.6591 C.3     1  UNL1        0.0478
     27 C          62.2705   93.2096    1.3655 C.ar    1  UNL1        0.2621
     28 N          63.3235   94.2295    1.6836 N.ar    1  UNL1       -0.1910
     29 C          64.2018   94.3808    0.4771 C.ar    1  UNL1        0.1812
     30 C          65.3828   95.2976    0.3556 C.3     1  UNL1        0.0773
     31 N          63.6916   93.4544   -0.5867 N.ar    1  UNL1       -0.0602
     32 O          62.4981   92.7306   -0.0376 O.2     1  UNL1       -0.3327
     33 C          59.3054   87.7654    7.6901 C.3     1  UNL1        0.0050
     34 C          59.9754   89.1029    7.5798 C.3     1  UNL1        0.0264
@<TRIPOS>BOND
     1    33    34    1
     2    34     1    1
     3     1     2   ar
     4     2     3   ar
     5     3     4    1
     6     3     5   ar
     7     5     6   ar
     8     6     7   ar
     9     7    13    1
    10    13    14    1
    11    14    15    1
    12    15    16    1
    13    16    19    1
    14    19    21    1
    15    21    22    1
    16    22    23    1
    17    23    24    1
    18    24    25    1
    19    25    26    1
    20    16    17    1
    21    17    18    1
    22     7     8   ar
    23     8    27    1
    24    27    28   ar
    25    28    29   ar
    26    29    30    1
    27    29    31   ar
    28    31    32   ar
    29     8     9   ar
    30     9    10    1
    31     9    11   ar
    32    11    12   ar
    33    12     1   ar
    34    11     5   ar
    35    18    13    1
    36    32    27   ar
    37    26    21    1
    38    19    20    1
