@<TRIPOS>MOLECULE
*****
 59 65 0 0 0
SMALL
GASTEIGER

@<TRIPOS>ATOM
      1 N          63.7710   86.0660   16.0286 N.3     1  UNL1       -0.1862
      2 C          63.8918   84.5869   16.2469 C.3     1  UNL1        0.1775
      3 C          63.7785   83.6455   15.0847 C.2     1  UNL1        0.2452
      4 O          63.8993   82.1663   15.3031 O.2     1  UNL1       -0.2732
      5 N          63.5443   84.1831   13.7041 N.am    1  UNL1       -0.2541
      6 C          63.4310   83.2416   12.5418 C.3     1  UNL1        0.1577
      7 C          63.1969   83.7793   11.1612 C.2     1  UNL1        0.2445
      8 O          63.0836   82.8378    9.9990 O.2     1  UNL1       -0.2731
      9 N          63.0761   85.2584   10.9428 N.am    1  UNL1       -0.2705
     10 C          63.1894   86.1999   12.1051 C.3     1  UNL1        0.1359
     11 C          63.4235   85.6622   13.4857 C.3     1  UNL1        0.1908
     12 N          63.5369   86.6036   14.6480 N.am    1  UNL1       -0.1863
     13 C          63.4161   88.0827   14.4296 C.2     1  UNL1        0.3191
     14 O          63.1819   88.6204   13.0490 O.2     1  UNL1       -0.2512
     15 N          63.5294   89.0242   15.5918 N.am    1  UNL1       -0.2836
     16 H          63.6830   88.6713   16.4980 H       1  UNL1        0.1513
     17 C          63.8843   87.0074   17.1908 C.3     1  UNL1        0.1188
     18 C          62.6844   87.0346   19.4950 C.2     1  UNL1       -0.0034
     19 C          62.6761   87.3209   18.0226 C.2     1  UNL1       -0.0071
     20 C          63.5518   81.7626   12.7601 C.3     1  UNL1        0.0556
     21 C          62.3603   80.9714   13.2120 C.ar    1  UNL1       -0.0198
     22 C          61.1338   81.6791   13.7069 C.ar    1  UNL1       -0.0011
     23 C          59.9423   80.8879   14.1588 C.ar    1  UNL1        0.0363
     24 C          59.9772   79.3889   14.1158 C.ar    1  UNL1        0.1337
     25 O          58.7856   78.5977   14.5677 O.3     1  UNL1       -0.5055
     26 C          61.2037   78.6811   13.6210 C.ar    1  UNL1        0.0363
     27 C          62.3952   79.4723   13.1691 C.ar    1  UNL1       -0.0011
     28 H          58.0195   79.0398   14.8768 H       1  UNL1        0.2922
     29 C          62.8420   85.7960    9.5622 C.3     1  UNL1        0.1217
     30 C          62.1186   87.0970    9.3766 C.ar    1  UNL1        0.0135
     31 C          62.4563   88.2733   10.2440 C.ar    1  UNL1       -0.0012
     32 C          61.7330   89.5742   10.0584 C.ar    1  UNL1       -0.0002
     33 C          60.6720   89.6988    9.0055 C.ar    1  UNL1        0.0016
     34 C          60.3343   88.5225    8.1381 C.ar    1  UNL1        0.0214
     35 C          59.3427   88.3470    7.0264 C.ar    1  UNL1        0.0721
     36 C          59.4532   86.9377    6.5249 C.ar    1  UNL1        0.0805
     37 N          60.5130   86.2421    7.3266 N.ar    1  UNL1       -0.3241
     38 C          60.9514   84.8173    7.1605 C.3     1  UNL1        0.1305
     39 C          61.0576   87.2216    8.3237 C.ar    1  UNL1        0.0577
     40 C          58.4052   89.3967    6.5073 C.2     1  UNL1        0.2506
     41 O          56.9636   89.3859    6.9217 O.2     1  UNL1       -0.2699
     42 N          58.9093   90.4571    5.5737 N.am    1  UNL1       -0.2732
     43 C          57.9719   91.5067    5.0546 C.3     1  UNL1        0.1110
     44 C          58.4760   92.5671    4.1211 C.3     1  UNL1        0.0939
     45 N          59.9176   92.5778    3.7067 N.3     1  UNL1       -0.2697
     46 C          60.8550   91.5281    4.2258 C.3     1  UNL1        0.0939
     47 C          60.3509   90.4678    5.1594 C.3     1  UNL1        0.1110
     48 C          60.4217   93.6382    2.7732 C.3     1  UNL1        0.0748
     49 C          59.9829   93.6450    1.3388 C.3     1  UNL1        0.0490
     50 C          60.3801   92.5216    0.4277 C.3     1  UNL1        0.1386
     51 O          59.3356   91.5943   -0.1192 O.3     1  UNL1       -0.3819
     52 H          58.9444   91.0838    0.6068 H       1  UNL1        0.2104
     53 C          63.4086   90.5032   15.3735 C.3     1  UNL1        0.1177
     54 C          64.6233   91.3118   15.0263 C.ar    1  UNL1       -0.0025
     55 C          65.0909   91.3896   13.6031 C.ar    1  UNL1       -0.0026
     56 C          66.3056   92.1981   13.2559 C.ar    1  UNL1       -0.0003
     57 C          67.0529   92.9289   14.3317 C.ar    1  UNL1       -0.0000
     58 C          66.5853   92.8512   15.7550 C.ar    1  UNL1       -0.0003
     59 C          65.3706   92.0427   16.1022 C.ar    1  UNL1       -0.0026
@<TRIPOS>BOND
     1    18    19    2
     2    19    17    1
     3    17     1    1
     4     1     2    1
     5     2     3    1
     6     3     4    2
     7     3     5   am
     8     5     6    1
     9     6    20    1
    10    20    21    1
    11    21    22   ar
    12    22    23   ar
    13    23    24   ar
    14    24    25    1
    15    24    26   ar
    16    26    27   ar
    17     6     7    1
    18     7     8    2
    19     7     9   am
    20     9    29    1
    21    29    30    1
    22    30    31   ar
    23    31    32   ar
    24    32    33   ar
    25    33    34   ar
    26    34    35   ar
    27    35    40    1
    28    40    41    2
    29    40    42   am
    30    42    43    1
    31    43    44    1
    32    44    45    1
    33    45    48    1
    34    48    49    1
    35    49    50    1
    36    50    51    1
    37    45    46    1
    38    46    47    1
    39    35    36   ar
    40    36    37   ar
    41    37    38    1
    42    37    39   ar
    43     9    10    1
    44    11    10    1
    45    11    12    1
    46    12    13   am
    47    13    14    2
    48    13    15   am
    49    15    53    1
    50    53    54    1
    51    54    55   ar
    52    55    56   ar
    53    56    57   ar
    54    57    58   ar
    55    58    59   ar
    56    12     1    1
    57    59    54   ar
    58    11     5    1
    59    27    21   ar
    60    39    30   ar
    61    39    34   ar
    62    47    42    1
    63    25    28    1
    64    51    52    1
    65    15    16    1
@<TRIPOS>MOLECULE
*****
 59 65 0 0 0
SMALL
GASTEIGER

@<TRIPOS>ATOM
      1 N          61.4058   85.6314    8.1760 N.3     1  UNL1       -0.1862
      2 C          62.3412   84.5283    8.5732 C.3     1  UNL1        0.1775
      3 C          63.0177   84.5640    9.9116 C.2     1  UNL1        0.2452
      4 O          63.9532   83.4607   10.3087 O.2     1  UNL1       -0.2732
      5 N          62.7586   85.7028   10.8527 N.am    1  UNL1       -0.2541
      6 C          63.4351   85.7385   12.1911 C.3     1  UNL1        0.1577
      7 C          63.1760   86.8774   13.1322 C.2     1  UNL1        0.2445
      8 O          63.8524   86.9131   14.4705 O.2     1  UNL1       -0.2731
      9 N          62.2405   87.9807   12.7350 N.am    1  UNL1       -0.2705
     10 C          61.5640   87.9450   11.3967 C.3     1  UNL1        0.1359
     11 C          61.8231   86.8060   10.4555 C.3     1  UNL1        0.1908
     12 N          61.1467   86.7703    9.1172 N.am    1  UNL1       -0.1863
     13 C          60.2112   87.8736    8.7200 C.2     1  UNL1        0.3191
     14 O          59.9521   89.0125    9.6611 O.2     1  UNL1       -0.2512
     15 N          59.5347   87.8379    7.3817 N.am    1  UNL1       -0.2836
     16 H          59.7048   87.0904    6.7639 H       1  UNL1        0.1513
     17 C          60.7293   85.5957    6.8377 C.3     1  UNL1        0.1188
     18 C          62.2316   84.3524    5.1210 C.2     1  UNL1       -0.0034
     19 C          60.9597   84.4386    5.9115 C.2     1  UNL1       -0.0071
     20 C          64.3705   84.6354   12.5883 C.3     1  UNL1        0.0556
     21 C          63.8231   83.3320   13.0898 C.ar    1  UNL1       -0.0198
     22 C          64.5700   82.0566   12.8338 C.ar    1  UNL1       -0.0011
     23 C          64.0226   80.7533   13.3354 C.ar    1  UNL1        0.0363
     24 C          62.7283   80.7252   14.0930 C.ar    1  UNL1        0.1337
     25 O          62.1810   79.4219   14.5945 O.3     1  UNL1       -0.5055
     26 C          61.9814   82.0006   14.3490 C.ar    1  UNL1        0.0363
     27 C          62.5288   83.3040   13.8474 C.ar    1  UNL1       -0.0011
     28 H          62.6475   78.6252   14.4346 H       1  UNL1        0.2922
     29 C          61.9814   89.1196   13.6762 C.3     1  UNL1        0.1217
     30 C          63.0871   90.0720   14.0234 C.ar    1  UNL1        0.0135
     31 C          63.5821   90.1635   15.4364 C.ar    1  UNL1       -0.0012
     32 C          64.6877   91.1158   15.7836 C.ar    1  UNL1       -0.0002
     33 C          65.2983   91.9767   14.7178 C.ar    1  UNL1        0.0016
     34 C          64.8033   91.8852   13.3048 C.ar    1  UNL1        0.0214
     35 C          65.2085   92.6020   12.0509 C.ar    1  UNL1        0.0721
     36 C          64.3533   92.0926   10.9289 C.ar    1  UNL1        0.0805
     37 N          63.4196   91.0610   11.4892 N.ar    1  UNL1       -0.3241
     38 C          62.3888   90.2925   10.7167 C.3     1  UNL1        0.1305
     39 C          63.6977   90.9328   12.9575 C.ar    1  UNL1        0.0577
     40 C          66.2807   93.6451   11.9389 C.2     1  UNL1        0.2506
     41 O          67.2161   93.8854   13.0867 O.2     1  UNL1       -0.2699
     42 N          66.4175   94.4477   10.6792 N.am    1  UNL1       -0.2732
     43 C          67.4896   95.4908   10.5671 C.3     1  UNL1        0.1110
     44 C          67.6264   96.2934    9.3073 C.3     1  UNL1        0.0939
     45 N          66.6910   96.0531    8.1596 N.3     1  UNL1       -0.2697
     46 C          65.6188   95.0100    8.2717 C.3     1  UNL1        0.0939
     47 C          65.4821   94.2073    9.5314 C.3     1  UNL1        0.1110
     48 C          66.8278   96.8558    6.8998 C.3     1  UNL1        0.0748
     49 C          66.3911   96.2733    5.5883 C.3     1  UNL1        0.0490
     50 C          65.2128   96.8547    4.8647 C.3     1  UNL1        0.1386
     51 O          64.8514   96.3553    3.4972 O.3     1  UNL1       -0.3819
     52 H          65.5560   96.5866    2.8720 H       1  UNL1        0.2104
     53 C          58.5993   88.9411    6.9845 C.3     1  UNL1        0.1177
     54 C          59.0571   90.0065    6.0330 C.ar    1  UNL1       -0.0025
     55 C          58.0546   90.9158    5.3865 C.ar    1  UNL1       -0.0026
     56 C          58.5124   91.9813    4.4350 C.ar    1  UNL1       -0.0003
     57 C          59.9727   92.1373    4.1301 C.ar    1  UNL1       -0.0000
     58 C          60.9753   91.2280    4.7766 C.ar    1  UNL1       -0.0003
     59 C          60.5175   90.1625    5.7280 C.ar    1  UNL1       -0.0026
@<TRIPOS>BOND
     1    18    19    2
     2    19    17    1
     3    17     1    1
     4     1     2    1
     5     2     3    1
     6     3     4    2
     7     3     5   am
     8     5     6    1
     9     6    20    1
    10    20    21    1
    11    21    22   ar
    12    22    23   ar
    13    23    24   ar
    14    24    25    1
    15    24    26   ar
    16    26    27   ar
    17     6     7    1
    18     7     8    2
    19     7     9   am
    20     9    29    1
    21    29    30    1
    22    30    31   ar
    23    31    32   ar
    24    32    33   ar
    25    33    34   ar
    26    34    35   ar
    27    35    40    1
    28    40    41    2
    29    40    42   am
    30    42    43    1
    31    43    44    1
    32    44    45    1
    33    45    48    1
    34    48    49    1
    35    49    50    1
    36    50    51    1
    37    45    46    1
    38    46    47    1
    39    35    36   ar
    40    36    37   ar
    41    37    38    1
    42    37    39   ar
    43     9    10    1
    44    11    10    1
    45    11    12    1
    46    12    13   am
    47    13    14    2
    48    13    15   am
    49    15    53    1
    50    53    54    1
    51    54    55   ar
    52    55    56   ar
    53    56    57   ar
    54    57    58   ar
    55    58    59   ar
    56    12     1    1
    57    59    54   ar
    58    11     5    1
    59    27    21   ar
    60    39    30   ar
    61    39    34   ar
    62    47    42    1
    63    25    28    1
    64    51    52    1
    65    15    16    1
