@<TRIPOS>MOLECULE
*****
 90 90 0 0 0
SMALL
GASTEIGER

@<TRIPOS>ATOM
      1 C          61.5120   93.6620   -0.7965 C.3     1  UNL1        0.1789
      2 C          60.9197   93.7444    0.5792 C.2     1  UNL1        0.2433
      3 O          60.2594   95.0750    0.3706 O.2     1  UNL1       -0.2732
      4 N          60.4530   93.5739    1.9944 N.am    1  UNL1       -0.2969
      5 C          60.1286   93.1566    3.3983 C.3     1  UNL1        0.1488
      6 C          59.9584   92.5076    4.7399 C.2     1  UNL1        0.2439
      7 O          59.1153   93.6030    5.3223 O.2     1  UNL1       -0.2731
      8 N          59.9485   91.6503    5.9707 N.am    1  UNL1       -0.2682
      9 C          59.1035   92.5828    6.7871 C.3     1  UNL1        0.1154
     10 C          60.0992   90.6158    7.0464 C.3     1  UNL1        0.1794
     11 C          60.4051   89.4414    7.9279 C.2     1  UNL1        0.2463
     12 O          59.6469   89.9539    9.1164 O.2     1  UNL1       -0.2730
     13 N          60.8552   88.1695    8.5835 N.am    1  UNL1       -0.2698
     14 C          60.1826   88.4402    9.8966 C.3     1  UNL1        0.1153
     15 C          61.4331   86.8461    8.9895 C.3     1  UNL1        0.1518
     16 C          62.1180   85.5192    9.1311 C.2     1  UNL1        0.2409
     17 O          61.6855   85.2860   10.5484 O.2     1  UNL1       -0.2733
     18 N          62.8852   84.2366    9.0034 N.am    1  UNL1       -0.2970
     19 C          63.7068   83.0446    8.6108 C.3     1  UNL1        0.1487
     20 C          64.5533   81.9864    7.9676 C.2     1  UNL1        0.2439
     21 O          64.5837   81.0816    9.1636 O.2     1  UNL1       -0.2731
     22 N          65.3940   81.1002    7.0970 N.am    1  UNL1       -0.2699
     23 C          65.5842   80.0270    8.1275 C.3     1  UNL1        0.1153
     24 C          66.1985   80.4180    6.0305 C.3     1  UNL1        0.1518
     25 C          66.9377   79.9646    4.8066 C.2     1  UNL1        0.2409
     26 O          67.4215   78.6754    5.4017 O.2     1  UNL1       -0.2733
     27 N          67.5850   79.7562    3.4696 N.am    1  UNL1       -0.2970
     28 C          68.1170   79.8004    2.0678 C.3     1  UNL1        0.1486
     29 C          68.8249   78.4801    2.1422 C.3     1  UNL1        0.0312
     30 C          68.5143   80.0957    0.6519 C.2     1  UNL1        0.2406
     31 O          69.2978   78.8315    0.4570 O.2     1  UNL1       -0.2733
     32 N          68.7627   80.6313   -0.7271 N.am    1  UNL1       -0.2970
     33 C          68.8532   81.3878   -2.0191 C.3     1  UNL1        0.1489
     34 C          69.7011   80.3693   -2.7218 C.3     1  UNL1        0.0312
     35 C          68.7825   82.3381   -3.1776 C.2     1  UNL1        0.2439
     36 O          69.6169   81.5002   -4.1004 O.2     1  UNL1       -0.2731
     37 N          68.5531   83.4475   -4.1607 N.am    1  UNL1       -0.2699
     38 C          69.3440   82.8206   -5.2704 C.3     1  UNL1        0.1153
     39 C          68.1734   84.6762   -4.9328 C.3     1  UNL1        0.1520
     40 C          67.6571   85.9797   -5.4659 C.2     1  UNL1        0.2441
     41 O          68.2776   85.8342   -6.8238 O.2     1  UNL1       -0.2731
     42 N          67.0228   87.3109   -5.7411 N.am    1  UNL1       -0.2699
     43 C          67.5227   87.4184   -7.1512 C.3     1  UNL1        0.1153
     44 C          66.2935   88.6217   -5.7481 C.3     1  UNL1        0.1520
     45 C          65.4955   89.8646   -5.4867 C.2     1  UNL1        0.2441
     46 O          65.7050   90.4576   -6.8484 O.2     1  UNL1       -0.2731
     47 N          64.6576   90.9947   -4.9664 N.am    1  UNL1       -0.2699
     48 C          64.7079   91.8026   -6.2293 C.3     1  UNL1        0.1153
     49 C          63.8102   91.9714   -4.2061 C.3     1  UNL1        0.1520
     50 C          62.9839   92.7591   -3.2331 C.2     1  UNL1        0.2441
     51 O          62.7159   93.9024   -4.1665 O.2     1  UNL1       -0.2731
     52 N          62.2085   93.3295   -2.0827 N.am    1  UNL1       -0.2680
     53 C          61.7931   94.5812   -2.7974 C.3     1  UNL1        0.1154
     54 H          59.9614   94.4259    2.0341 H       1  UNL1        0.1499
     55 H          62.6970   83.9235    9.9176 H       1  UNL1        0.1499
     56 H          67.9833   78.8841    3.6934 H       1  UNL1        0.1499
     57 H          69.3079   79.8684   -1.0270 H       1  UNL1        0.1499
     58 C          60.9643   94.9769   -1.2666 C.3     1  UNL1        0.1377
     59 O          61.7412   96.2389   -1.0350 O.3     1  UNL1       -0.3822
     60 H          61.2495   96.9924   -1.3975 H       1  UNL1        0.2104
     61 C          59.6397   95.0297   -1.9683 C.3     1  UNL1        0.0334
     62 C          58.8334   93.7771   -2.1439 C.3     1  UNL1        0.0029
     63 C          59.1212   96.3353   -2.4945 C.3     1  UNL1        0.0282
     64 C          56.6084   96.1299   -5.5595 C.3     1  UNL1        0.0303
     65 C          57.8796   96.0936   -4.7639 C.2     1  UNL1       -0.0304
     66 C          57.8502   96.3716   -3.2902 C.2     1  UNL1       -0.0306
     67 C          63.5763   82.3410    9.9292 C.3     1  UNL1        0.0269
     68 C          62.7339   81.1048   10.0394 C.3     1  UNL1        0.0022
     69 C          64.2882   82.8737   11.1372 C.3     1  UNL1        0.0022
     70 C          63.6994   92.9648   -5.3244 C.3     1  UNL1        0.0271
     71 C          62.4850   92.9708   -6.2049 C.3     1  UNL1        0.0022
     72 C          64.8031   93.9525   -5.5623 C.3     1  UNL1        0.0022
     73 C          59.3179   94.3754    3.7257 C.3     1  UNL1        0.0290
     74 C          59.5510   95.6544    2.9774 C.3     1  UNL1        0.0023
     75 C          60.8703   86.8653   10.3798 C.3     1  UNL1        0.0292
     76 C          61.7808   87.0658   11.5548 C.3     1  UNL1        0.0021
     77 C          61.8681   86.0169   12.6236 C.3     1  UNL1        0.0001
     78 C          62.6041   88.3152   11.6611 C.3     1  UNL1        0.0001
     79 C          66.5416   79.2151    6.8583 C.3     1  UNL1        0.0292
     80 C          65.7088   77.9718    6.7558 C.3     1  UNL1        0.0021
     81 C          65.0685   77.3947    7.9834 C.3     1  UNL1        0.0001
     82 C          65.5165   77.3055    5.4258 C.3     1  UNL1        0.0001
     83 C          68.8921   84.2829   -6.1893 C.3     1  UNL1        0.0292
     84 C          70.3821   84.4314   -6.2789 C.3     1  UNL1        0.0021
     85 C          71.1615   84.9052   -5.0881 C.3     1  UNL1        0.0001
     86 C          71.0926   84.1061   -7.5592 C.3     1  UNL1        0.0001
     87 C          66.6547   88.9783   -7.1595 C.3     1  UNL1        0.0292
     88 C          67.7619   89.9546   -7.4265 C.3     1  UNL1        0.0021
     89 C          67.4562   91.4169   -7.5607 C.3     1  UNL1        0.0001
     90 C          69.1746   89.4684   -7.5593 C.3     1  UNL1        0.0001
@<TRIPOS>BOND
     1    64    65    1
     2    65    66    2
     3    66    63    1
     4    63    61    1
     5    61    62    1
     6    61    58    1
     7    58    59    1
     8    58     1    1
     9     1     2    1
    10     2     3    2
    11     2     4   am
    12     4     5    1
    13     5    73    1
    14    73    74    1
    15     5     6    1
    16     6     7    2
    17     6     8   am
    18     8     9    1
    19     8    10    1
    20    10    11    1
    21    11    12    2
    22    11    13   am
    23    13    14    1
    24    13    15    1
    25    15    75    1
    26    75    76    1
    27    76    77    1
    28    76    78    1
    29    15    16    1
    30    16    17    2
    31    16    18   am
    32    18    19    1
    33    19    67    1
    34    67    68    1
    35    67    69    1
    36    19    20    1
    37    20    21    2
    38    20    22   am
    39    22    23    1
    40    22    24    1
    41    24    79    1
    42    79    80    1
    43    80    81    1
    44    80    82    1
    45    24    25    1
    46    25    26    2
    47    25    27   am
    48    27    28    1
    49    28    29    1
    50    28    30    1
    51    30    31    2
    52    30    32   am
    53    32    33    1
    54    33    34    1
    55    33    35    1
    56    35    36    2
    57    35    37   am
    58    37    38    1
    59    37    39    1
    60    39    83    1
    61    83    84    1
    62    84    85    1
    63    84    86    1
    64    39    40    1
    65    40    41    2
    66    40    42   am
    67    42    43    1
    68    42    44    1
    69    44    87    1
    70    87    88    1
    71    88    89    1
    72    88    90    1
    73    44    45    1
    74    45    46    2
    75    45    47   am
    76    47    48    1
    77    47    49    1
    78    49    70    1
    79    70    71    1
    80    70    72    1
    81    49    50    1
    82    50    51    2
    83    50    52   am
    84    52    53    1
    85     1    52    1
    86    59    60    1
    87     4    54    1
    88    18    55    1
    89    27    56    1
    90    32    57    1
