@<TRIPOS>MOLECULE
*****
 28 32 0 0 0
SMALL
GASTEIGER

@<TRIPOS>ATOM
      1 C          64.6346   90.0814   14.1526 C.ar    1  UNL1        0.0593
      2 C          63.8489   90.4884   12.9413 C.ar    1  UNL1        0.0152
      3 C          64.3007   91.6529   12.1108 C.ar    1  UNL1        0.0035
      4 C          65.5381   92.4104   12.4914 C.ar    1  UNL1        0.0277
      5 C          66.3238   92.0034   13.7026 C.ar    1  UNL1        0.1413
      6 F          67.5613   92.7609   14.0833 F       1  UNL1       -0.2041
      7 C          65.8720   90.8389   14.5332 C.ar    1  UNL1        0.0446
      8 C          65.9900   93.5749   11.6608 C.ar    1  UNL1        0.0067
      9 C          66.0703   94.9436   12.2690 C.ar    1  UNL1        0.0192
     10 C          66.5222   96.1081   11.4384 C.ar    1  UNL1        0.0815
     11 N          66.8937   95.9038    9.9996 N.ar    1  UNL1       -0.2874
     12 C          67.3706   96.8539    8.9415 C.ar    1  UNL1        0.1022
     13 C          67.5851   96.0724    7.6793 C.ar    1  UNL1        0.1195
     14 N          67.2407   94.6391    7.9573 N.ar    1  UNL1       -0.2248
     15 C          66.8134   94.5349    9.3914 C.ar    1  UNL1        0.1479
     16 C          66.3615   93.3705   10.2220 C.ar    1  UNL1        0.0375
     17 O          62.8097   90.2448   16.8531 O.2     1  UNL1       -0.2258
     18 C          63.3440   88.9921   16.2245 C.2     1  UNL1        0.4088
     19 O          63.1332   87.5945   16.7267 O.3     1  UNL1       -0.4342
     20 C          63.8418   86.6556   15.7959 C.3     1  UNL1        0.2149
     21 C          64.4905   87.4730   14.7183 C.3     1  UNL1        0.1471
     22 N          64.1828   88.9170   14.9832 N.am    1  UNL1       -0.2212
     23 C          63.8928   85.1617   15.9207 C.3     1  UNL1        0.1745
     24 N          63.6398   84.2996   14.7195 N.ar    1  UNL1       -0.2264
     25 C          62.4515   83.4091   14.5081 C.ar    1  UNL1        0.1193
     26 C          62.6079   82.7358   13.1768 C.ar    1  UNL1        0.1441
     27 N          63.8929   83.2104   12.5655 N.ar    1  UNL1       -0.1271
     28 N          64.5306   84.1768   13.5190 N.ar    1  UNL1       -0.0636
@<TRIPOS>BOND
     1    17    18    2
     2    18    19    1
     3    19    20    1
     4    20    23    1
     5    23    24    1
     6    24    25   ar
     7    25    26   ar
     8    26    27   ar
     9    27    28   ar
    10    20    21    1
    11    21    22    1
    12    22     1    1
    13     1     2   ar
    14     2     3   ar
    15     3     4   ar
    16     4     8    1
    17     8     9   ar
    18     9    10   ar
    19    10    11   ar
    20    11    12   ar
    21    12    13   ar
    22    13    14   ar
    23    14    15   ar
    24    15    16   ar
    25     4     5   ar
    26     5     6    1
    27     5     7   ar
    28    22    18   am
    29     7     1   ar
    30    28    24   ar
    31    16     8   ar
    32    15    11   ar
@<TRIPOS>MOLECULE
*****
 28 32 0 0 0
SMALL
GASTEIGER

@<TRIPOS>ATOM
      1 C          64.3664   88.7069   14.2683 C.ar    1  UNL1        0.0593
      2 C          64.7942   87.6383   15.2300 C.ar    1  UNL1        0.0152
      3 C          64.5016   86.1980   14.9297 C.ar    1  UNL1        0.0035
      4 C          63.7811   85.8265   13.6677 C.ar    1  UNL1        0.0277
      5 C          63.3533   86.8950   12.7059 C.ar    1  UNL1        0.1413
      6 F          62.6328   86.5235   11.4438 F       1  UNL1       -0.2041
      7 C          63.6459   88.3352   13.0062 C.ar    1  UNL1        0.0446
      8 C          63.4885   84.3862   13.3673 C.ar    1  UNL1        0.0067
      9 C          64.2302   83.6833   12.2694 C.ar    1  UNL1        0.0192
     10 C          63.9375   82.2431   11.9690 C.ar    1  UNL1        0.0815
     11 N          62.9031   81.5059   12.7668 N.ar    1  UNL1       -0.2874
     12 C          62.4036   80.0930   12.7006 C.ar    1  UNL1        0.1022
     13 C          61.3532   79.9228   13.7577 C.ar    1  UNL1        0.1195
     14 N          61.2034   81.2304   14.4773 N.ar    1  UNL1       -0.2248
     15 C          62.1613   82.2088   13.8648 C.ar    1  UNL1        0.1479
     16 C          62.4540   83.6490   14.1651 C.ar    1  UNL1        0.0375
     17 O          63.1884   90.4195   16.7840 O.2     1  UNL1       -0.2258
     18 C          64.1175   90.9343   15.7249 C.2     1  UNL1        0.4088
     19 O          64.6684   92.3266   15.6362 O.3     1  UNL1       -0.4342
     20 C          65.5502   92.4000   14.4251 C.3     1  UNL1        0.2149
     21 C          65.5445   91.0529   13.7652 C.3     1  UNL1        0.1471
     22 N          64.6590   90.1471   14.5685 N.am    1  UNL1       -0.2212
     23 C          66.3053   93.6083   13.9561 C.3     1  UNL1        0.1745
     24 N          66.6145   93.7803   12.4984 N.ar    1  UNL1       -0.2264
     25 C          66.1595   94.9144   11.6286 C.ar    1  UNL1        0.1193
     26 C          66.6968   94.6835   10.2472 C.ar    1  UNL1        0.1441
     27 N          67.4839   93.4068   10.2635 N.ar    1  UNL1       -0.1271
     28 N          67.4331   92.8485   11.6548 N.ar    1  UNL1       -0.0636
@<TRIPOS>BOND
     1    17    18    2
     2    18    19    1
     3    19    20    1
     4    20    23    1
     5    23    24    1
     6    24    25   ar
     7    25    26   ar
     8    26    27   ar
     9    27    28   ar
    10    20    21    1
    11    21    22    1
    12    22     1    1
    13     1     2   ar
    14     2     3   ar
    15     3     4   ar
    16     4     8    1
    17     8     9   ar
    18     9    10   ar
    19    10    11   ar
    20    11    12   ar
    21    12    13   ar
    22    13    14   ar
    23    14    15   ar
    24    15    16   ar
    25     4     5   ar
    26     5     6    1
    27     5     7   ar
    28    22    18   am
    29     7     1   ar
    30    28    24   ar
    31    16     8   ar
    32    15    11   ar
@<TRIPOS>MOLECULE
*****
 28 32 0 0 0
SMALL
GASTEIGER

@<TRIPOS>ATOM
      1 C          64.3111   88.7221   14.2386 C.ar    1  UNL1        0.0593
      2 C          64.7129   87.6359   15.1918 C.ar    1  UNL1        0.0152
      3 C          64.3830   86.2058   14.8814 C.ar    1  UNL1        0.0035
      4 C          63.6515   85.8621   13.6179 C.ar    1  UNL1        0.0277
      5 C          63.2498   86.9484   12.6646 C.ar    1  UNL1        0.1413
      6 F          62.5182   86.6047   11.4010 F       1  UNL1       -0.2041
      7 C          63.5796   88.3783   12.9750 C.ar    1  UNL1        0.0446
      8 C          63.3216   84.4321   13.3074 C.ar    1  UNL1        0.0067
      9 C          62.6557   83.5743   14.3421 C.ar    1  UNL1        0.0192
     10 C          62.3259   82.1443   14.0317 C.ar    1  UNL1        0.0815
     11 N          62.6620   81.5722   12.6865 N.ar    1  UNL1       -0.2874
     12 C          62.4597   80.2077   12.0971 C.ar    1  UNL1        0.1022
     13 C          63.0006   80.2223   10.6981 C.ar    1  UNL1        0.1195
     14 N          63.5372   81.5957   10.4228 N.ar    1  UNL1       -0.2248
     15 C          63.3280   82.4300   11.6517 C.ar    1  UNL1        0.1479
     16 C          63.6578   83.8599   11.9622 C.ar    1  UNL1        0.0375
     17 O          63.1543   90.4561   16.7495 O.2     1  UNL1       -0.2258
     18 C          64.1092   90.9491   15.7031 C.2     1  UNL1        0.4088
     19 O          64.7000   92.3257   15.6271 O.3     1  UNL1       -0.4342
     20 C          65.5970   92.3795   14.4260 C.3     1  UNL1        0.2149
     21 C          65.5605   91.0361   13.7597 C.3     1  UNL1        0.1471
     22 N          64.6410   90.1521   14.5490 N.am    1  UNL1       -0.2212
     23 C          66.3910   93.5681   13.9711 C.3     1  UNL1        0.1745
     24 N          66.6695   93.7698   12.5111 N.ar    1  UNL1       -0.2264
     25 C          66.1984   94.9224   11.6747 C.ar    1  UNL1        0.1193
     26 C          66.7057   94.7192   10.2778 C.ar    1  UNL1        0.1441
     27 N          67.4902   93.4411   10.2509 N.ar    1  UNL1       -0.1271
     28 N          67.4679   92.8543   11.6311 N.ar    1  UNL1       -0.0636
@<TRIPOS>BOND
     1    17    18    2
     2    18    19    1
     3    19    20    1
     4    20    23    1
     5    23    24    1
     6    24    25   ar
     7    25    26   ar
     8    26    27   ar
     9    27    28   ar
    10    20    21    1
    11    21    22    1
    12    22     1    1
    13     1     2   ar
    14     2     3   ar
    15     3     4   ar
    16     4     8    1
    17     8     9   ar
    18     9    10   ar
    19    10    11   ar
    20    11    12   ar
    21    12    13   ar
    22    13    14   ar
    23    14    15   ar
    24    15    16   ar
    25     4     5   ar
    26     5     6    1
    27     5     7   ar
    28    22    18   am
    29     7     1   ar
    30    28    24   ar
    31    16     8   ar
    32    15    11   ar
@<TRIPOS>MOLECULE
*****
 28 32 0 0 0
SMALL
GASTEIGER

@<TRIPOS>ATOM
      1 C          62.2182   89.4150   10.5179 C.ar    1  UNL1        0.0593
      2 C          62.7066   90.8227   10.3453 C.ar    1  UNL1        0.0152
      3 C          63.6165   91.4319   11.3706 C.ar    1  UNL1        0.0035
      4 C          64.0380   90.6333   12.5682 C.ar    1  UNL1        0.0277
      5 C          63.5496   89.2256   12.7408 C.ar    1  UNL1        0.1413
      6 F          63.9711   88.4269   13.9386 F       1  UNL1       -0.2041
      7 C          62.6398   88.6164   11.7156 C.ar    1  UNL1        0.0446
      8 C          64.9479   91.2424   13.5935 C.ar    1  UNL1        0.0067
      9 C          64.4510   91.4850   14.9878 C.ar    1  UNL1        0.0192
     10 C          65.3609   92.0941   16.0131 C.ar    1  UNL1        0.0815
     11 N          66.7678   92.4606   15.6439 N.ar    1  UNL1       -0.2874
     12 C          67.8863   93.0713   16.4350 C.ar    1  UNL1        0.1022
     13 C          69.0746   93.2062   15.5296 C.ar    1  UNL1        0.1195
     14 N          68.6904   92.6789   14.1789 N.ar    1  UNL1       -0.2248
     15 C          67.2647   92.2181   14.2495 C.ar    1  UNL1        0.1479
     16 C          66.3548   91.6090   13.2244 C.ar    1  UNL1        0.0375
     17 O          62.0464   86.2491    9.7449 O.2     1  UNL1       -0.2258
     18 C          61.2294   87.3506    9.1374 C.2     1  UNL1        0.4088
     19 O          60.1899   87.1904    8.0679 O.3     1  UNL1       -0.4342
     20 C          59.6265   88.5465    7.7622 C.3     1  UNL1        0.2149
     21 C          60.3177   89.5450    8.6428 C.3     1  UNL1        0.1471
     22 N          61.3084   88.8058    9.4927 N.am    1  UNL1       -0.2212
     23 C          58.5592   88.8508    6.7531 C.3     1  UNL1        0.1745
     24 N          58.6492   90.0934    5.9178 N.ar    1  UNL1       -0.2264
     25 C          59.9023   90.6724    5.3310 C.ar    1  UNL1        0.1193
     26 C          59.5294   91.9121    4.5731 C.ar    1  UNL1        0.1441
     27 N          58.0459   92.0991    4.6916 N.ar    1  UNL1       -0.1271
     28 N          57.5018   90.9751    5.5226 N.ar    1  UNL1       -0.0636
@<TRIPOS>BOND
     1    17    18    2
     2    18    19    1
     3    19    20    1
     4    20    23    1
     5    23    24    1
     6    24    25   ar
     7    25    26   ar
     8    26    27   ar
     9    27    28   ar
    10    20    21    1
    11    21    22    1
    12    22     1    1
    13     1     2   ar
    14     2     3   ar
    15     3     4   ar
    16     4     8    1
    17     8     9   ar
    18     9    10   ar
    19    10    11   ar
    20    11    12   ar
    21    12    13   ar
    22    13    14   ar
    23    14    15   ar
    24    15    16   ar
    25     4     5   ar
    26     5     6    1
    27     5     7   ar
    28    22    18   am
    29     7     1   ar
    30    28    24   ar
    31    16     8   ar
    32    15    11   ar
@<TRIPOS>MOLECULE
*****
 28 32 0 0 0
SMALL
GASTEIGER

@<TRIPOS>ATOM
      1 C          64.1581   88.9253   13.4930 C.ar    1  UNL1        0.0593
      2 C          63.3322   88.3427   12.3846 C.ar    1  UNL1        0.0152
      3 C          62.9616   86.8894   12.4097 C.ar    1  UNL1        0.0035
      4 C          63.4168   86.0187   13.5430 C.ar    1  UNL1        0.0277
      5 C          64.2426   86.6013   14.6515 C.ar    1  UNL1        0.1413
      6 F          64.6979   85.7306   15.7850 F       1  UNL1       -0.2041
      7 C          64.6133   88.0546   14.6264 C.ar    1  UNL1        0.0446
      8 C          63.0462   84.5654   13.5681 C.ar    1  UNL1        0.0067
      9 C          62.3570   83.9877   14.7685 C.ar    1  UNL1        0.0192
     10 C          61.9864   82.5344   14.7936 C.ar    1  UNL1        0.0815
     11 N          62.3051   81.6588   13.6181 N.ar    1  UNL1       -0.2874
     12 C          62.0636   80.2015   13.3574 C.ar    1  UNL1        0.1022
     13 C          62.6037   79.8786   11.9958 C.ar    1  UNL1        0.1195
     14 N          63.1790   81.1363   11.4150 N.ar    1  UNL1       -0.2248
     15 C          62.9944   82.2365   12.4176 C.ar    1  UNL1        0.1479
     16 C          63.3650   83.6898   12.3926 C.ar    1  UNL1        0.0375
     17 O          64.2590   90.9238   16.0709 O.2     1  UNL1       -0.2258
     18 C          64.5751   91.2971   14.6529 C.2     1  UNL1        0.4088
     19 O          64.9930   92.6547   14.1709 O.3     1  UNL1       -0.4342
     20 C          65.2049   92.5751   12.6881 C.3     1  UNL1        0.2149
     21 C          64.9179   91.1684   12.2537 C.3     1  UNL1        0.1471
     22 N          64.5287   90.3785   13.4680 N.am    1  UNL1       -0.2212
     23 C          65.6293   93.7041   11.7963 C.3     1  UNL1        0.1745
     24 N          66.8006   93.5325   10.8750 N.ar    1  UNL1       -0.2264
     25 C          67.4381   92.2297   10.4927 C.ar    1  UNL1        0.1193
     26 C          68.5714   92.5257    9.5557 C.ar    1  UNL1        0.1441
     27 N          68.6343   94.0114    9.3589 N.ar    1  UNL1       -0.1271
     28 N          67.5398   94.6336   10.1743 N.ar    1  UNL1       -0.0636
@<TRIPOS>BOND
     1    17    18    2
     2    18    19    1
     3    19    20    1
     4    20    23    1
     5    23    24    1
     6    24    25   ar
     7    25    26   ar
     8    26    27   ar
     9    27    28   ar
    10    20    21    1
    11    21    22    1
    12    22     1    1
    13     1     2   ar
    14     2     3   ar
    15     3     4   ar
    16     4     8    1
    17     8     9   ar
    18     9    10   ar
    19    10    11   ar
    20    11    12   ar
    21    12    13   ar
    22    13    14   ar
    23    14    15   ar
    24    15    16   ar
    25     4     5   ar
    26     5     6    1
    27     5     7   ar
    28    22    18   am
    29     7     1   ar
    30    28    24   ar
    31    16     8   ar
    32    15    11   ar
@<TRIPOS>MOLECULE
*****
 28 32 0 0 0
SMALL
GASTEIGER

@<TRIPOS>ATOM
      1 C          63.8596   87.8185   13.9729 C.ar    1  UNL1        0.0593
      2 C          64.3380   86.7546   14.9160 C.ar    1  UNL1        0.0152
      3 C          64.1199   85.3074   14.5869 C.ar    1  UNL1        0.0035
      4 C          63.4234   84.9242   13.3150 C.ar    1  UNL1        0.0277
      5 C          62.9450   85.9881   12.3719 C.ar    1  UNL1        0.1413
      6 F          62.2485   85.6049   11.0999 F       1  UNL1       -0.2041
      7 C          63.1631   87.4352   12.7009 C.ar    1  UNL1        0.0446
      8 C          63.2053   83.4770   12.9859 C.ar    1  UNL1        0.0067
      9 C          62.8173   82.5123   14.0668 C.ar    1  UNL1        0.0192
     10 C          62.5992   81.0651   13.7378 C.ar    1  UNL1        0.0815
     11 N          62.7691   80.5828   12.3277 N.ar    1  UNL1       -0.2874
     12 C          62.6228   79.2253   11.7067 C.ar    1  UNL1        0.1022
     13 C          62.9204   79.3510   10.2420 C.ar    1  UNL1        0.1195
     14 N          63.2507   80.7863    9.9576 N.ar    1  UNL1       -0.2248
     15 C          63.1572   81.5476   11.2466 C.ar    1  UNL1        0.1479
     16 C          63.3753   82.9947   11.5758 C.ar    1  UNL1        0.0375
     17 O          62.2738   89.5264   16.2572 O.2     1  UNL1       -0.2258
     18 C          63.3488   90.0506   15.3519 C.2     1  UNL1        0.4088
     19 O          63.8835   91.4520   15.3376 O.3     1  UNL1       -0.4342
     20 C          64.9429   91.5330   14.2788 C.3     1  UNL1        0.2149
     21 C          65.0629   90.1817   13.6387 C.3     1  UNL1        0.1471
     22 N          64.0777   89.2656   14.3019 N.am    1  UNL1       -0.2212
     23 C          65.7421   92.7514   13.9226 C.3     1  UNL1        0.1745
     24 N          67.1636   92.8774   14.3844 N.ar    1  UNL1       -0.2264
     25 C          67.6223   93.5153   15.6622 C.ar    1  UNL1        0.1193
     26 C          69.1182   93.4197   15.7170 C.ar    1  UNL1        0.1441
     27 N          69.5841   92.7228   14.4732 N.ar    1  UNL1       -0.1271
     28 N          68.3761   92.3876   13.6495 N.ar    1  UNL1       -0.0636
@<TRIPOS>BOND
     1    17    18    2
     2    18    19    1
     3    19    20    1
     4    20    23    1
     5    23    24    1
     6    24    25   ar
     7    25    26   ar
     8    26    27   ar
     9    27    28   ar
    10    20    21    1
    11    21    22    1
    12    22     1    1
    13     1     2   ar
    14     2     3   ar
    15     3     4   ar
    16     4     8    1
    17     8     9   ar
    18     9    10   ar
    19    10    11   ar
    20    11    12   ar
    21    12    13   ar
    22    13    14   ar
    23    14    15   ar
    24    15    16   ar
    25     4     5   ar
    26     5     6    1
    27     5     7   ar
    28    22    18   am
    29     7     1   ar
    30    28    24   ar
    31    16     8   ar
    32    15    11   ar
@<TRIPOS>MOLECULE
*****
 28 32 0 0 0
SMALL
GASTEIGER

@<TRIPOS>ATOM
      1 C          63.8167   88.0832   13.4642 C.ar    1  UNL1        0.0593
      2 C          63.1163   87.5687   12.2416 C.ar    1  UNL1        0.0152
      3 C          62.8760   86.0970   12.0785 C.ar    1  UNL1        0.0035
      4 C          63.3361   85.1400   13.1378 C.ar    1  UNL1        0.0277
      5 C          64.0365   85.6545   14.3604 C.ar    1  UNL1        0.1413
      6 F          64.4966   84.6974   15.4199 F       1  UNL1       -0.2041
      7 C          64.2768   87.1261   14.5236 C.ar    1  UNL1        0.0446
      8 C          63.0958   83.6683   12.9747 C.ar    1  UNL1        0.0067
      9 C          62.6448   82.8476   14.1464 C.ar    1  UNL1        0.0192
     10 C          62.4045   81.3759   13.9832 C.ar    1  UNL1        0.0815
     11 N          62.6153   80.7251   12.6483 N.ar    1  UNL1       -0.2874
     12 C          62.4597   79.3060   12.1878 C.ar    1  UNL1        0.1022
     13 C          62.8146   79.2498   10.7315 C.ar    1  UNL1        0.1195
     14 N          63.1895   80.6341   10.2919 N.ar    1  UNL1       -0.2248
     15 C          63.0663   81.5459   11.4766 C.ar    1  UNL1        0.1479
     16 C          63.3066   83.0175   11.6398 C.ar    1  UNL1        0.0375
     17 O          62.3272   90.4657   11.8045 O.2     1  UNL1       -0.2258
     18 C          63.3724   90.6499   12.8645 C.2     1  UNL1        0.4088
     19 O          63.9164   91.9615   13.3478 O.3     1  UNL1       -0.4342
     20 C          64.9372   91.6771   14.4093 C.3     1  UNL1        0.2149
     21 C          65.0242   90.1896   14.5822 C.3     1  UNL1        0.1471
     22 N          64.0570   89.5548   13.6274 N.am    1  UNL1       -0.2212
     23 C          65.7317   92.7005   15.1653 C.3     1  UNL1        0.1745
     24 N          67.2273   92.7220   15.0526 N.ar    1  UNL1       -0.2264
     25 C          68.1830   93.2202   16.0958 C.ar    1  UNL1        0.1193
     26 C          69.5761   93.0552   15.5648 C.ar    1  UNL1        0.1441
     27 N          69.4814   92.4551   14.1933 N.ar    1  UNL1       -0.1271
     28 N          68.0297   92.2492   13.8768 N.ar    1  UNL1       -0.0636
@<TRIPOS>BOND
     1    17    18    2
     2    18    19    1
     3    19    20    1
     4    20    23    1
     5    23    24    1
     6    24    25   ar
     7    25    26   ar
     8    26    27   ar
     9    27    28   ar
    10    20    21    1
    11    21    22    1
    12    22     1    1
    13     1     2   ar
    14     2     3   ar
    15     3     4   ar
    16     4     8    1
    17     8     9   ar
    18     9    10   ar
    19    10    11   ar
    20    11    12   ar
    21    12    13   ar
    22    13    14   ar
    23    14    15   ar
    24    15    16   ar
    25     4     5   ar
    26     5     6    1
    27     5     7   ar
    28    22    18   am
    29     7     1   ar
    30    28    24   ar
    31    16     8   ar
    32    15    11   ar
@<TRIPOS>MOLECULE
*****
 28 32 0 0 0
SMALL
GASTEIGER

@<TRIPOS>ATOM
      1 C          64.0865   88.3305   14.1152 C.ar    1  UNL1        0.0593
      2 C          63.3811   88.0375   12.8243 C.ar    1  UNL1        0.0152
      3 C          63.1536   86.6169   12.3997 C.ar    1  UNL1        0.0035
      4 C          63.6314   85.4895   13.2659 C.ar    1  UNL1        0.0277
      5 C          64.3368   85.7825   14.5568 C.ar    1  UNL1        0.1413
      6 F          64.8148   84.6551   15.4232 F       1  UNL1       -0.2041
      7 C          64.5644   87.2031   14.9815 C.ar    1  UNL1        0.0446
      8 C          63.4039   84.0689   12.8413 C.ar    1  UNL1        0.0067
      9 C          63.7083   83.6488   11.4340 C.ar    1  UNL1        0.0192
     10 C          63.4808   82.2282   11.0094 C.ar    1  UNL1        0.0815
     11 N          62.9489   81.2278   11.9923 N.ar    1  UNL1       -0.2874
     12 C          62.6259   79.7686   11.8639 C.ar    1  UNL1        0.1022
     13 C          62.1219   79.2869   13.1920 C.ar    1  UNL1        0.1195
     14 N          62.1333   80.4483   14.1412 N.ar    1  UNL1       -0.2248
     15 C          62.6444   81.6479   13.3997 C.ar    1  UNL1        0.1479
     16 C          62.8719   83.0685   13.8242 C.ar    1  UNL1        0.0375
     17 O          62.4527   89.9196   16.4508 O.2     1  UNL1       -0.2258
     18 C          63.5630   90.4815   15.6134 C.2     1  UNL1        0.4088
     19 O          64.1174   91.8724   15.7025 O.3     1  UNL1       -0.4342
     20 C          65.2109   92.0017   14.6840 C.3     1  UNL1        0.2149
     21 C          65.3325   90.6906   13.9654 C.3     1  UNL1        0.1471
     22 N          64.3140   89.7511   14.5398 N.am    1  UNL1       -0.2212
     23 C          66.0378   93.2269   14.4289 C.3     1  UNL1        0.1745
     24 N          67.4594   93.2846   14.9039 N.ar    1  UNL1       -0.2264
     25 C          68.5742   92.3841   14.4610 C.ar    1  UNL1        0.1193
     26 C          69.8196   92.7959   15.1886 C.ar    1  UNL1        0.1441
     27 N          69.4744   93.9509   16.0813 N.ar    1  UNL1       -0.1271
     28 N          68.0157   94.2530   15.9053 N.ar    1  UNL1       -0.0636
@<TRIPOS>BOND
     1    17    18    2
     2    18    19    1
     3    19    20    1
     4    20    23    1
     5    23    24    1
     6    24    25   ar
     7    25    26   ar
     8    26    27   ar
     9    27    28   ar
    10    20    21    1
    11    21    22    1
    12    22     1    1
    13     1     2   ar
    14     2     3   ar
    15     3     4   ar
    16     4     8    1
    17     8     9   ar
    18     9    10   ar
    19    10    11   ar
    20    11    12   ar
    21    12    13   ar
    22    13    14   ar
    23    14    15   ar
    24    15    16   ar
    25     4     5   ar
    26     5     6    1
    27     5     7   ar
    28    22    18   am
    29     7     1   ar
    30    28    24   ar
    31    16     8   ar
    32    15    11   ar
@<TRIPOS>MOLECULE
*****
 28 32 0 0 0
SMALL
GASTEIGER

@<TRIPOS>ATOM
      1 C          62.4364   89.4879   11.2811 C.ar    1  UNL1        0.0593
      2 C          62.9145   90.8807   10.9954 C.ar    1  UNL1        0.0152
      3 C          63.9286   91.5246   11.8938 C.ar    1  UNL1        0.0035
      4 C          64.4647   90.7757   13.0777 C.ar    1  UNL1        0.0277
      5 C          63.9866   89.3829   13.3634 C.ar    1  UNL1        0.1413
      6 F          64.5226   88.6340   14.5474 F       1  UNL1       -0.2041
      7 C          62.9725   88.7390   12.4651 C.ar    1  UNL1        0.0446
      8 C          65.4788   91.4196   13.9761 C.ar    1  UNL1        0.0067
      9 C          65.0892   91.8515   15.3587 C.ar    1  UNL1        0.0192
     10 C          66.1034   92.4953   16.2571 C.ar    1  UNL1        0.0815
     11 N          67.5071   92.7072   15.7727 N.ar    1  UNL1       -0.2874
     12 C          68.7143   93.3106   16.4273 C.ar    1  UNL1        0.1022
     13 C          69.8501   93.2516   15.4493 C.ar    1  UNL1        0.1195
     14 N          69.3447   92.6117   14.1902 N.ar    1  UNL1       -0.2248
     15 C          67.8967   92.2753   14.3901 C.ar    1  UNL1        0.1479
     16 C          66.8825   91.6315   13.4918 C.ar    1  UNL1        0.0375
     17 O          59.6249   90.8206   10.2968 O.2     1  UNL1       -0.2258
     18 C          60.1300   89.4566    9.9304 C.2     1  UNL1        0.4088
     19 O          59.4315   88.4657    9.0471 O.3     1  UNL1       -0.4342
     20 C          60.2921   87.2407    8.9537 C.3     1  UNL1        0.2149
     21 C          61.5225   87.4745    9.7792 C.3     1  UNL1        0.1471
     22 N          61.4223   88.8440   10.3828 N.am    1  UNL1       -0.2212
     23 C          59.9775   85.9997    8.1720 C.3     1  UNL1        0.1745
     24 N          61.0401   85.3507    7.3355 N.ar    1  UNL1       -0.2264
     25 C          62.5039   85.2941    7.6580 C.ar    1  UNL1        0.1193
     26 C          63.1939   84.5527    6.5515 C.ar    1  UNL1        0.1441
     27 N          62.1565   84.1512    5.5452 N.ar    1  UNL1       -0.1271
     28 N          60.8253   84.6444    6.0298 N.ar    1  UNL1       -0.0636
@<TRIPOS>BOND
     1    17    18    2
     2    18    19    1
     3    19    20    1
     4    20    23    1
     5    23    24    1
     6    24    25   ar
     7    25    26   ar
     8    26    27   ar
     9    27    28   ar
    10    20    21    1
    11    21    22    1
    12    22     1    1
    13     1     2   ar
    14     2     3   ar
    15     3     4   ar
    16     4     8    1
    17     8     9   ar
    18     9    10   ar
    19    10    11   ar
    20    11    12   ar
    21    12    13   ar
    22    13    14   ar
    23    14    15   ar
    24    15    16   ar
    25     4     5   ar
    26     5     6    1
    27     5     7   ar
    28    22    18   am
    29     7     1   ar
    30    28    24   ar
    31    16     8   ar
    32    15    11   ar
