@<TRIPOS>MOLECULE
*****
 36 39 0 0 0
SMALL
GASTEIGER

@<TRIPOS>ATOM
      1 C          63.7896   90.7710   11.8735 C.ar    1  UNL1        0.1534
      2 C          62.8590   90.7940   10.6973 C.ar    1  UNL1        0.0351
      3 C          62.0314   89.5860   10.3721 C.ar    1  UNL1        0.0722
      4 CL         61.1008   89.6089    9.1959 Cl      1  UNL1       -0.0809
      5 C          62.1345   88.3550   11.2231 C.ar    1  UNL1        0.0577
      6 C          63.0651   88.3321   12.3992 C.ar    1  UNL1        0.0462
      7 C          63.8926   89.5401   12.7244 C.ar    1  UNL1        0.1602
      8 F          64.8233   89.5172   13.9006 F       1  UNL1       -0.2027
      9 O          64.1037   91.9515   13.6078 O.2     1  UNL1       -0.1498
     10 S          64.6172   91.9791   12.1987 S.O2    1  UNL1        0.0772
     11 O          65.1307   92.0067   10.7897 O.2     1  UNL1       -0.1498
     12 N          65.4448   93.1871   12.5240 N.pl3   1  UNL1       -0.1936
     13 H          65.2237   94.0581   12.1219 H       1  UNL1        0.1758
     14 C          66.6093   93.0680   13.4621 C.ar    1  UNL1        0.1794
     15 N          66.9627   94.0320   14.5556 N.ar    1  UNL1       -0.2114
     16 C          68.1966   93.5238   15.2406 C.ar    1  UNL1        0.1468
     17 CL         68.8982   94.1787   16.3933 Cl      1  UNL1       -0.0607
     18 C          68.6058   92.2457   14.5704 C.ar    1  UNL1        0.0689
     19 S          67.6247   91.9640   13.4712 S.2     1  UNL1       -0.0488
     20 N          61.3069   87.1470   10.8978 N.pl3   1  UNL1       -0.3306
     21 H          60.6512   87.1824   10.1643 H       1  UNL1        0.1469
     22 C          61.4783   85.8849   11.6901 C.3     1  UNL1        0.1075
     23 C          62.5462   84.9015   11.3126 C.3     1  UNL1        0.0963
     24 N          62.6821   84.4520    9.8880 N.3     1  UNL1       -0.2935
     25 C          63.7500   83.4686    9.5105 C.3     1  UNL1        0.0735
     26 C          64.6820   82.9348   10.5576 C.3     1  UNL1        0.0428
     27 C          64.5461   83.3843   11.9822 C.2     1  UNL1       -0.0276
     28 C          63.4782   84.3677   12.3597 C.2     1  UNL1       -0.0106
     29 H          62.8424   85.2899    9.3289 H       1  UNL1        0.1236
     30 C          63.3423   84.8172   13.7843 C.ar    1  UNL1       -0.0028
     31 C          64.2137   85.9195   14.3092 C.ar    1  UNL1        0.0020
     32 C          64.0778   86.3691   15.7338 C.ar    1  UNL1        0.0296
     33 C          63.0705   85.7164   16.6334 C.ar    1  UNL1        0.1401
     34 F          62.9346   86.1660   18.0580 F       1  UNL1       -0.2042
     35 C          62.1990   84.6141   16.1085 C.ar    1  UNL1        0.0296
     36 C          62.3350   84.1645   14.6839 C.ar    1  UNL1        0.0020
@<TRIPOS>BOND
     1     9    10    2
     2    10    11    2
     3    10    12    1
     4    12    14    1
     5    14    15   ar
     6    15    16   ar
     7    16    17    1
     8    16    18   ar
     9    18    19   ar
    10    10     1    1
    11     1     2   ar
    12     2     3   ar
    13     3     4    1
    14     3     5   ar
    15     5    20    1
    16    20    22    1
    17    23    22    1
    18    23    24    1
    19    24    25    1
    20    25    26    1
    21    26    27    1
    22    27    28    2
    23    28    30    1
    24    30    31   ar
    25    31    32   ar
    26    32    33   ar
    27    33    34    1
    28    33    35   ar
    29    35    36   ar
    30     5     6   ar
    31     6     7   ar
    32     7     8    1
    33    19    14   ar
    34     7     1   ar
    35    28    23    1
    36    36    30   ar
    37    12    13    1
    38    20    21    1
    39    24    29    1
@<TRIPOS>MOLECULE
*****
 36 39 0 0 0
SMALL
GASTEIGER

@<TRIPOS>ATOM
      1 C          63.3478   85.4218   15.2215 C.ar    1  UNL1        0.1534
      2 C          63.0923   86.2811   16.4240 C.ar    1  UNL1        0.0351
      3 C          63.3891   87.7505   16.3726 C.ar    1  UNL1        0.0722
      4 CL         63.1335   88.6099   17.5752 Cl      1  UNL1       -0.0809
      5 C          63.9414   88.3606   15.1185 C.ar    1  UNL1        0.0577
      6 C          64.1970   87.5013   13.9159 C.ar    1  UNL1        0.0462
      7 C          63.9002   86.0319   13.9674 C.ar    1  UNL1        0.1602
      8 F          64.1558   85.1725   12.7648 F       1  UNL1       -0.2027
      9 O          61.5840   84.2448   15.1635 O.2     1  UNL1       -0.1498
     10 S          63.0511   83.9523   15.2729 S.O2    1  UNL1        0.0772
     11 O          64.5181   83.6598   15.3823 O.2     1  UNL1       -0.1498
     12 N          62.7542   82.4829   15.3243 N.pl3   1  UNL1       -0.1936
     13 H          62.5700   82.0478   16.1881 H       1  UNL1        0.1758
     14 C          62.7381   81.6763   14.0597 C.ar    1  UNL1        0.1794
     15 N          63.1383   82.1628   12.6984 N.ar    1  UNL1       -0.2114
     16 C          62.9664   81.0287   11.7318 C.ar    1  UNL1        0.1468
     17 CL         63.2510   81.0741   10.2598 Cl      1  UNL1       -0.0607
     18 C          62.4599   79.8413   12.4957 C.ar    1  UNL1        0.0689
     19 S          62.3188   80.2415   13.9345 S.2     1  UNL1       -0.0488
     20 N          64.2382   89.8301   15.0671 N.pl3   1  UNL1       -0.3306
     21 H          64.9320   90.2129   15.6513 H       1  UNL1        0.1469
     22 C          63.4779   90.7163   14.1255 C.3     1  UNL1        0.1075
     23 C          64.2073   91.4789   13.0594 C.3     1  UNL1        0.0963
     24 N          65.3172   92.4158   13.4337 N.3     1  UNL1       -0.2935
     25 C          66.0466   93.1783   12.3676 C.3     1  UNL1        0.0735
     26 C          65.6659   93.0039   10.9272 C.3     1  UNL1        0.0428
     27 C          64.5560   92.0669   10.5529 C.2     1  UNL1       -0.0276
     28 C          63.8267   91.3044   11.6190 C.2     1  UNL1       -0.0106
     29 H          66.0156   91.8619   13.9295 H       1  UNL1        0.1236
     30 C          62.7167   90.3674   11.2448 C.ar    1  UNL1       -0.0028
     31 C          61.3324   90.8979   11.0163 C.ar    1  UNL1        0.0020
     32 C          60.2224   89.9610   10.6421 C.ar    1  UNL1        0.0296
     33 C          60.4967   88.4935   10.4963 C.ar    1  UNL1        0.1401
     34 F          59.3868   87.5566   10.1221 F       1  UNL1       -0.2042
     35 C          61.8811   87.9630   10.7247 C.ar    1  UNL1        0.0296
     36 C          62.9911   88.9000   11.0990 C.ar    1  UNL1        0.0020
@<TRIPOS>BOND
     1     9    10    2
     2    10    11    2
     3    10    12    1
     4    12    14    1
     5    14    15   ar
     6    15    16   ar
     7    16    17    1
     8    16    18   ar
     9    18    19   ar
    10    10     1    1
    11     1     2   ar
    12     2     3   ar
    13     3     4    1
    14     3     5   ar
    15     5    20    1
    16    20    22    1
    17    23    22    1
    18    23    24    1
    19    24    25    1
    20    25    26    1
    21    26    27    1
    22    27    28    2
    23    28    30    1
    24    30    31   ar
    25    31    32   ar
    26    32    33   ar
    27    33    34    1
    28    33    35   ar
    29    35    36   ar
    30     5     6   ar
    31     6     7   ar
    32     7     8    1
    33    19    14   ar
    34     7     1   ar
    35    28    23    1
    36    36    30   ar
    37    12    13    1
    38    20    21    1
    39    24    29    1
@<TRIPOS>MOLECULE
*****
 36 39 0 0 0
SMALL
GASTEIGER

@<TRIPOS>ATOM
      1 C          63.6823   86.3777   14.0041 C.ar    1  UNL1        0.1534
      2 C          63.2682   86.7935   12.6237 C.ar    1  UNL1        0.0351
      3 C          63.1107   88.2483   12.2942 C.ar    1  UNL1        0.0722
      4 CL         62.6966   88.6642   10.9138 Cl      1  UNL1       -0.0809
      5 C          63.3672   89.2873   13.3453 C.ar    1  UNL1        0.0577
      6 C          63.7813   88.8715   14.7257 C.ar    1  UNL1        0.0462
      7 C          63.9388   87.4167   15.0551 C.ar    1  UNL1        0.1602
      8 F          64.3529   87.0008   16.4356 F       1  UNL1       -0.2027
      9 O          62.3498   84.7847   14.4363 O.2     1  UNL1       -0.1498
     10 S          63.8398   84.9227   14.3335 S.O2    1  UNL1        0.0772
     11 O          65.3299   85.0608   14.2308 O.2     1  UNL1       -0.1498
     12 N          63.9973   83.4679   14.6630 N.pl3   1  UNL1       -0.1936
     13 H          64.4148   83.1980   15.5128 H       1  UNL1        0.1758
     14 C          63.5187   82.4242   13.6977 C.ar    1  UNL1        0.1794
     15 N          63.7648   82.4125   12.2181 N.ar    1  UNL1       -0.2114
     16 C          63.1081   81.1901   11.6486 C.ar    1  UNL1        0.1468
     17 CL         63.1041   80.7830   10.2050 Cl      1  UNL1       -0.0607
     18 C          62.4562   80.4461   12.7763 C.ar    1  UNL1        0.0689
     19 S          62.7099   81.2089   14.0428 S.2     1  UNL1       -0.0488
     20 N          63.2097   90.7423   13.0158 N.pl3   1  UNL1       -0.3306
     21 H          62.3155   91.1541   13.0210 H       1  UNL1        0.1469
     22 C          64.4145   91.5696   12.6785 C.3     1  UNL1        0.1075
     23 C          65.3015   92.0842   13.7733 C.3     1  UNL1        0.0963
     24 N          64.9483   91.8264   15.2081 N.3     1  UNL1       -0.2935
     25 C          65.8352   92.3410   16.3029 C.3     1  UNL1        0.0735
     26 C          67.0754   93.1132   15.9628 C.3     1  UNL1        0.0428
     27 C          67.4286   93.3709   14.5280 C.2     1  UNL1       -0.0276
     28 C          66.5416   92.8564   13.4332 C.2     1  UNL1       -0.0106
     29 H          64.8976   90.8140   15.3216 H       1  UNL1        0.1236
     30 C          66.8948   93.1141   11.9983 C.ar    1  UNL1       -0.0028
     31 C          66.3981   94.3534   11.3146 C.ar    1  UNL1        0.0020
     32 C          66.7512   94.6111    9.8797 C.ar    1  UNL1        0.0296
     33 C          67.6011   93.6296    9.1285 C.ar    1  UNL1        0.1401
     34 F          67.9542   93.8873    7.6937 F       1  UNL1       -0.2042
     35 C          68.0979   92.3903    9.8122 C.ar    1  UNL1        0.0296
     36 C          67.7447   92.1326   11.2471 C.ar    1  UNL1        0.0020
@<TRIPOS>BOND
     1     9    10    2
     2    10    11    2
     3    10    12    1
     4    12    14    1
     5    14    15   ar
     6    15    16   ar
     7    16    17    1
     8    16    18   ar
     9    18    19   ar
    10    10     1    1
    11     1     2   ar
    12     2     3   ar
    13     3     4    1
    14     3     5   ar
    15     5    20    1
    16    20    22    1
    17    23    22    1
    18    23    24    1
    19    24    25    1
    20    25    26    1
    21    26    27    1
    22    27    28    2
    23    28    30    1
    24    30    31   ar
    25    31    32   ar
    26    32    33   ar
    27    33    34    1
    28    33    35   ar
    29    35    36   ar
    30     5     6   ar
    31     6     7   ar
    32     7     8    1
    33    19    14   ar
    34     7     1   ar
    35    28    23    1
    36    36    30   ar
    37    12    13    1
    38    20    21    1
    39    24    29    1
@<TRIPOS>MOLECULE
*****
 36 39 0 0 0
SMALL
GASTEIGER

@<TRIPOS>ATOM
      1 C          65.4442   92.0858   12.9360 C.ar    1  UNL1        0.1534
      2 C          64.3593   91.6095   12.0162 C.ar    1  UNL1        0.0351
      3 C          63.6339   90.3302   12.3113 C.ar    1  UNL1        0.0722
      4 CL         62.5490   89.8538   11.3915 Cl      1  UNL1       -0.0809
      5 C          63.9932   89.5273   13.5263 C.ar    1  UNL1        0.0577
      6 C          65.0781   90.0036   14.4461 C.ar    1  UNL1        0.0462
      7 C          65.8036   91.2829   14.1510 C.ar    1  UNL1        0.1602
      8 F          66.8885   91.7593   15.0709 F       1  UNL1       -0.2027
      9 O          66.5384   92.8430   11.2840 O.2     1  UNL1       -0.1498
     10 S          66.1697   93.3651   12.6409 S.O2    1  UNL1        0.0772
     11 O          65.8011   93.8873   13.9979 O.2     1  UNL1       -0.1498
     12 N          66.8953   94.6443   12.3458 N.pl3   1  UNL1       -0.1936
     13 H          67.5719   94.9831   12.9756 H       1  UNL1        0.1758
     14 C          66.5899   95.4075   11.0910 C.ar    1  UNL1        0.1794
     15 N          67.5175   95.5997    9.9281 N.ar    1  UNL1       -0.2114
     16 C          66.8042   96.4234    8.8973 C.ar    1  UNL1        0.1468
     17 CL         67.3615   96.8545    7.5731 Cl      1  UNL1       -0.0607
     18 C          65.4355   96.7404    9.4232 C.ar    1  UNL1        0.0689
     19 S          65.3031   96.1125   10.7791 S.2     1  UNL1       -0.0488
     20 N          63.2677   88.2480   13.8214 N.pl3   1  UNL1       -0.3306
     21 H          62.4496   88.2611   14.3690 H       1  UNL1        0.1469
     22 C          63.7885   86.9488   13.2822 C.3     1  UNL1        0.1075
     23 C          63.3441   85.6519   13.8911 C.3     1  UNL1        0.0963
     24 N          63.3559   85.4800   15.3812 N.3     1  UNL1       -0.2935
     25 C          62.9115   84.1832   15.9900 C.3     1  UNL1        0.0735
     26 C          62.4553   83.0583   15.1088 C.3     1  UNL1        0.0428
     27 C          62.4435   83.2303   13.6188 C.2     1  UNL1       -0.0276
     28 C          62.8879   84.5271   13.0099 C.2     1  UNL1       -0.0106
     29 H          62.7539   86.2078   15.7663 H       1  UNL1        0.1236
     30 C          62.8761   84.6990   11.5198 C.ar    1  UNL1       -0.0028
     31 C          62.0002   85.7425   10.8922 C.ar    1  UNL1        0.0020
     32 C          61.9883   85.9145    9.4022 C.ar    1  UNL1        0.0296
     33 C          62.8525   85.0430    8.5397 C.ar    1  UNL1        0.1401
     34 F          62.8407   85.2150    7.0497 F       1  UNL1       -0.2042
     35 C          63.7285   83.9996    9.1673 C.ar    1  UNL1        0.0296
     36 C          63.7403   83.8276   10.6574 C.ar    1  UNL1        0.0020
@<TRIPOS>BOND
     1     9    10    2
     2    10    11    2
     3    10    12    1
     4    12    14    1
     5    14    15   ar
     6    15    16   ar
     7    16    17    1
     8    16    18   ar
     9    18    19   ar
    10    10     1    1
    11     1     2   ar
    12     2     3   ar
    13     3     4    1
    14     3     5   ar
    15     5    20    1
    16    20    22    1
    17    23    22    1
    18    23    24    1
    19    24    25    1
    20    25    26    1
    21    26    27    1
    22    27    28    2
    23    28    30    1
    24    30    31   ar
    25    31    32   ar
    26    32    33   ar
    27    33    34    1
    28    33    35   ar
    29    35    36   ar
    30     5     6   ar
    31     6     7   ar
    32     7     8    1
    33    19    14   ar
    34     7     1   ar
    35    28    23    1
    36    36    30   ar
    37    12    13    1
    38    20    21    1
    39    24    29    1
@<TRIPOS>MOLECULE
*****
 36 39 0 0 0
SMALL
GASTEIGER

@<TRIPOS>ATOM
      1 C          62.5500   86.8514   11.6473 C.ar    1  UNL1        0.1534
      2 C          61.8506   87.9121   10.8500 C.ar    1  UNL1        0.0351
      3 C          62.0197   89.3575   11.2136 C.ar    1  UNL1        0.0722
      4 CL         61.3202   90.4182   10.4163 Cl      1  UNL1       -0.0809
      5 C          62.8881   89.7421   12.3746 C.ar    1  UNL1        0.0577
      6 C          63.5875   88.6815   13.1719 C.ar    1  UNL1        0.0462
      7 C          63.4185   87.2361   12.8082 C.ar    1  UNL1        0.1602
      8 F          64.1179   86.1753   13.6055 F       1  UNL1       -0.2027
      9 O          61.9706   85.0993   12.6934 O.2     1  UNL1       -0.1498
     10 S          62.3810   85.4059   11.2836 S.O2    1  UNL1        0.0772
     11 O          62.7914   85.7126    9.8739 O.2     1  UNL1       -0.1498
     12 N          62.2120   83.9606   10.9201 N.pl3   1  UNL1       -0.1936
     13 H          61.7170   83.7124   10.1061 H       1  UNL1        0.1758
     14 C          62.7972   82.8932   11.7967 C.ar    1  UNL1        0.1794
     15 N          62.0450   81.7577   12.4250 N.ar    1  UNL1       -0.2114
     16 C          63.0203   80.9368   13.2156 C.ar    1  UNL1        0.1468
     17 CL         62.6973   79.7042   14.0069 Cl      1  UNL1       -0.0607
     18 C          64.3753   81.5650   13.0759 C.ar    1  UNL1        0.0689
     19 S          64.2374   82.7742   12.1989 S.2     1  UNL1       -0.0488
     20 N          63.0571   91.1876   12.7382 N.pl3   1  UNL1       -0.3306
     21 H          62.3195   91.6760   13.1701 H       1  UNL1        0.1469
     22 C          64.3500   91.8888   12.4438 C.3     1  UNL1        0.1075
     23 C          65.2949   92.2200   13.5607 C.3     1  UNL1        0.0963
     24 N          64.8882   91.9774   14.9840 N.3     1  UNL1       -0.2935
     25 C          65.8331   92.3086   16.1008 C.3     1  UNL1        0.0735
     26 C          67.1847   92.8824   15.7944 C.3     1  UNL1        0.0428
     27 C          67.5914   93.1251   14.3712 C.2     1  UNL1       -0.0276
     28 C          66.6465   92.7939   13.2543 C.2     1  UNL1       -0.0106
     29 H          64.6749   90.9832   15.0638 H       1  UNL1        0.1236
     30 C          67.0532   93.0365   11.8310 C.ar    1  UNL1       -0.0028
     31 C          66.6206   94.2905   11.1308 C.ar    1  UNL1        0.0020
     32 C          67.0272   94.5332    9.7075 C.ar    1  UNL1        0.0296
     33 C          67.8665   93.5218    8.9844 C.ar    1  UNL1        0.1401
     34 F          68.2731   93.7644    7.5611 F       1  UNL1       -0.2042
     35 C          68.2990   92.2678    9.6846 C.ar    1  UNL1        0.0296
     36 C          67.8924   92.0251   11.1079 C.ar    1  UNL1        0.0020
@<TRIPOS>BOND
     1     9    10    2
     2    10    11    2
     3    10    12    1
     4    12    14    1
     5    14    15   ar
     6    15    16   ar
     7    16    17    1
     8    16    18   ar
     9    18    19   ar
    10    10     1    1
    11     1     2   ar
    12     2     3   ar
    13     3     4    1
    14     3     5   ar
    15     5    20    1
    16    20    22    1
    17    23    22    1
    18    23    24    1
    19    24    25    1
    20    25    26    1
    21    26    27    1
    22    27    28    2
    23    28    30    1
    24    30    31   ar
    25    31    32   ar
    26    32    33   ar
    27    33    34    1
    28    33    35   ar
    29    35    36   ar
    30     5     6   ar
    31     6     7   ar
    32     7     8    1
    33    19    14   ar
    34     7     1   ar
    35    28    23    1
    36    36    30   ar
    37    12    13    1
    38    20    21    1
    39    24    29    1
@<TRIPOS>MOLECULE
*****
 36 39 0 0 0
SMALL
GASTEIGER

@<TRIPOS>ATOM
      1 C          63.5767   91.0612   11.8013 C.ar    1  UNL1        0.1534
      2 C          62.4678   91.1637   10.7965 C.ar    1  UNL1        0.0351
      3 C          61.4356   90.0792   10.7054 C.ar    1  UNL1        0.0722
      4 CL         60.3266   90.1817    9.7006 Cl      1  UNL1       -0.0809
      5 C          61.5125   88.8920   11.6191 C.ar    1  UNL1        0.0577
      6 C          62.6215   88.7894   12.6238 C.ar    1  UNL1        0.0462
      7 C          63.6536   89.8740   12.7149 C.ar    1  UNL1        0.1602
      8 F          64.7627   89.7715   13.7197 F       1  UNL1       -0.2027
      9 O          64.6557   92.2270   10.3954 O.2     1  UNL1       -0.1498
     10 S          64.6090   92.1458   11.8924 S.O2    1  UNL1        0.0772
     11 O          64.5622   92.0645   13.3894 O.2     1  UNL1       -0.1498
     12 N          65.6411   93.2303   11.9835 N.pl3   1  UNL1       -0.1936
     13 H          65.6563   93.8312   12.7633 H       1  UNL1        0.1758
     14 C          66.6501   93.3995   10.8865 C.ar    1  UNL1        0.1794
     15 N          67.5909   92.3451   10.3835 N.ar    1  UNL1       -0.2114
     16 C          68.4177   92.9467    9.2861 C.ar    1  UNL1        0.1468
     17 CL         69.4865   92.2453    8.5017 Cl      1  UNL1       -0.0607
     18 C          67.9879   94.3732    9.1108 C.ar    1  UNL1        0.0689
     19 S          66.8954   94.6530   10.0999 S.2     1  UNL1       -0.0488
     20 N          60.4803   87.8074   11.5279 N.pl3   1  UNL1       -0.3306
     21 H          59.5232   88.0378   11.5237 H       1  UNL1        0.1469
     22 C          60.9064   86.3717   11.4432 C.3     1  UNL1        0.1075
     23 C          61.5603   85.8558   10.1957 C.3     1  UNL1        0.0963
     24 N          61.0929   86.3314    8.8521 N.3     1  UNL1       -0.2935
     25 C          61.7468   85.8155    7.6047 C.3     1  UNL1        0.0735
     26 C          62.8682   84.8239    7.7008 C.3     1  UNL1        0.0428
     27 C          63.3356   84.3482    9.0444 C.2     1  UNL1       -0.0276
     28 C          62.6817   84.8641   10.2918 C.2     1  UNL1       -0.0106
     29 H          61.2026   87.3455    8.8443 H       1  UNL1        0.1236
     30 C          63.1491   84.3884   11.6355 C.ar    1  UNL1       -0.0028
     31 C          63.4771   85.3819   12.7104 C.ar    1  UNL1        0.0020
     32 C          63.9445   84.9063   14.0540 C.ar    1  UNL1        0.0296
     33 C          64.0839   83.4371   14.3227 C.ar    1  UNL1        0.1401
     34 F          64.5513   82.9615   15.6663 F       1  UNL1       -0.2042
     35 C          63.7559   82.4436   13.2478 C.ar    1  UNL1        0.0296
     36 C          63.2885   82.9193   11.9042 C.ar    1  UNL1        0.0020
@<TRIPOS>BOND
     1     9    10    2
     2    10    11    2
     3    10    12    1
     4    12    14    1
     5    14    15   ar
     6    15    16   ar
     7    16    17    1
     8    16    18   ar
     9    18    19   ar
    10    10     1    1
    11     1     2   ar
    12     2     3   ar
    13     3     4    1
    14     3     5   ar
    15     5    20    1
    16    20    22    1
    17    23    22    1
    18    23    24    1
    19    24    25    1
    20    25    26    1
    21    26    27    1
    22    27    28    2
    23    28    30    1
    24    30    31   ar
    25    31    32   ar
    26    32    33   ar
    27    33    34    1
    28    33    35   ar
    29    35    36   ar
    30     5     6   ar
    31     6     7   ar
    32     7     8    1
    33    19    14   ar
    34     7     1   ar
    35    28    23    1
    36    36    30   ar
    37    12    13    1
    38    20    21    1
    39    24    29    1
@<TRIPOS>MOLECULE
*****
 36 39 0 0 0
SMALL
GASTEIGER

@<TRIPOS>ATOM
      1 C          60.2914   87.3931    8.3592 C.ar    1  UNL1        0.1534
      2 C          61.1135   86.4558    7.5253 C.ar    1  UNL1        0.0351
      3 C          62.0925   85.5290    8.1831 C.ar    1  UNL1        0.0722
      4 CL         62.9146   84.5916    7.3492 Cl      1  UNL1       -0.0809
      5 C          62.2493   85.5396    9.6749 C.ar    1  UNL1        0.0577
      6 C          61.4272   86.4770   10.5088 C.ar    1  UNL1        0.0462
      7 C          60.4482   87.4037    9.8510 C.ar    1  UNL1        0.1602
      8 F          59.6260   88.3411   10.6849 F       1  UNL1       -0.2027
      9 O          58.5732   87.1412    7.1409 O.2     1  UNL1       -0.1498
     10 S          59.3124   88.3199    7.7014 S.O2    1  UNL1        0.0772
     11 O          60.0516   89.4986    8.2619 O.2     1  UNL1       -0.1498
     12 N          58.3334   89.2466    7.0436 N.pl3   1  UNL1       -0.1936
     13 H          57.3820   89.2167    7.2949 H       1  UNL1        0.1758
     14 C          58.8040   90.2190    6.0029 C.ar    1  UNL1        0.1794
     15 N          60.2101   90.3605    5.5000 N.ar    1  UNL1       -0.2114
     16 C          60.2262   91.4495    4.4687 C.ar    1  UNL1        0.1468
     17 CL         61.4275   91.9237    3.7059 Cl      1  UNL1       -0.0607
     18 C          58.8300   91.9811    4.3340 C.ar    1  UNL1        0.0689
     19 S          57.9510   91.2206    5.2823 S.2     1  UNL1       -0.0488
     20 N          63.2283   84.6128   10.3327 N.pl3   1  UNL1       -0.3306
     21 H          63.8593   84.0932    9.7840 H       1  UNL1        0.1469
     22 C          63.2458   84.4777   11.8264 C.3     1  UNL1        0.1075
     23 C          63.0345   83.1348   12.4606 C.3     1  UNL1        0.0963
     24 N          62.9148   81.9105   11.6023 N.3     1  UNL1       -0.2935
     25 C          62.7034   80.5677   12.2364 C.3     1  UNL1        0.0735
     26 C          62.6117   80.4492   13.7289 C.3     1  UNL1        0.0428
     27 C          62.7314   81.6735   14.5873 C.2     1  UNL1       -0.0276
     28 C          62.9428   83.0163   13.9531 C.2     1  UNL1       -0.0106
     29 H          63.7753   81.8471   11.0582 H       1  UNL1        0.1236
     30 C          63.0624   84.2406   14.8114 C.ar    1  UNL1       -0.0028
     31 C          62.1272   84.4408   15.9670 C.ar    1  UNL1        0.0020
     32 C          62.2468   85.6651   16.8253 C.ar    1  UNL1        0.0296
     33 C          63.3017   86.6893   16.5281 C.ar    1  UNL1        0.1401
     34 F          63.4214   87.9136   17.3864 F       1  UNL1       -0.2042
     35 C          64.2370   86.4891   15.3726 C.ar    1  UNL1        0.0296
     36 C          64.1173   85.2648   14.5142 C.ar    1  UNL1        0.0020
@<TRIPOS>BOND
     1     9    10    2
     2    10    11    2
     3    10    12    1
     4    12    14    1
     5    14    15   ar
     6    15    16   ar
     7    16    17    1
     8    16    18   ar
     9    18    19   ar
    10    10     1    1
    11     1     2   ar
    12     2     3   ar
    13     3     4    1
    14     3     5   ar
    15     5    20    1
    16    20    22    1
    17    23    22    1
    18    23    24    1
    19    24    25    1
    20    25    26    1
    21    26    27    1
    22    27    28    2
    23    28    30    1
    24    30    31   ar
    25    31    32   ar
    26    32    33   ar
    27    33    34    1
    28    33    35   ar
    29    35    36   ar
    30     5     6   ar
    31     6     7   ar
    32     7     8    1
    33    19    14   ar
    34     7     1   ar
    35    28    23    1
    36    36    30   ar
    37    12    13    1
    38    20    21    1
    39    24    29    1
@<TRIPOS>MOLECULE
*****
 36 39 0 0 0
SMALL
GASTEIGER

@<TRIPOS>ATOM
      1 C          63.6977   85.7467   13.8671 C.ar    1  UNL1        0.1534
      2 C          63.0740   86.1852   12.5753 C.ar    1  UNL1        0.0351
      3 C          63.0500   87.6397   12.2098 C.ar    1  UNL1        0.0722
      4 CL         62.4263   88.0783   10.9180 Cl      1  UNL1       -0.0809
      5 C          63.6497   88.6558   13.1361 C.ar    1  UNL1        0.0577
      6 C          64.2734   88.2173   14.4278 C.ar    1  UNL1        0.0462
      7 C          64.2974   86.7628   14.7933 C.ar    1  UNL1        0.1602
      8 F          64.9211   86.3242   16.0852 F       1  UNL1       -0.2027
      9 O          65.1959   84.2478   13.9594 O.2     1  UNL1       -0.1498
     10 S          63.7217   84.2921   14.2326 S.O2    1  UNL1        0.0772
     11 O          62.2475   84.3363   14.5059 O.2     1  UNL1       -0.1498
     12 N          63.7458   82.8375   14.5981 N.pl3   1  UNL1       -0.1936
     13 H          64.0240   82.5614   15.5012 H       1  UNL1        0.1758
     14 C          63.3458   81.8035   13.5877 C.ar    1  UNL1        0.1794
     15 N          63.5647   81.8876   12.1061 N.ar    1  UNL1       -0.2114
     16 C          63.0110   80.6400   11.4842 C.ar    1  UNL1        0.1468
     17 CL         63.0173   80.3061   10.0220 Cl      1  UNL1       -0.0607
     18 C          62.4498   79.7848   12.5814 C.ar    1  UNL1        0.0689
     19 S          62.6567   80.5040   13.8815 S.2     1  UNL1       -0.0488
     20 N          63.6257   90.1104   12.7705 N.pl3   1  UNL1       -0.3306
     21 H          62.8234   90.5000   12.3536 H       1  UNL1        0.1469
     22 C          64.8240   90.9714   13.0402 C.3     1  UNL1        0.1075
     23 C          65.1593   92.1018   12.1129 C.3     1  UNL1        0.0963
     24 N          64.3456   92.3205   10.8720 N.3     1  UNL1       -0.2935
     25 C          64.6810   93.4509    9.9448 C.3     1  UNL1        0.0735
     26 C          65.8301   94.3626   10.2586 C.3     1  UNL1        0.0428
     27 C          66.6438   94.1439   11.4995 C.2     1  UNL1       -0.0276
     28 C          66.3084   93.0135   12.4267 C.2     1  UNL1       -0.0106
     29 H          63.3816   92.4630   11.1733 H       1  UNL1        0.1236
     30 C          67.1222   92.7948   13.6677 C.ar    1  UNL1       -0.0028
     31 C          66.5849   93.2213   15.0017 C.ar    1  UNL1        0.0020
     32 C          67.3986   93.0026   16.2427 C.ar    1  UNL1        0.0296
     33 C          68.7495   92.3573   16.1497 C.ar    1  UNL1        0.1401
     34 F          69.5632   92.1386   17.3907 F       1  UNL1       -0.2042
     35 C          69.2868   91.9308   14.8158 C.ar    1  UNL1        0.0296
     36 C          68.4731   92.1495   13.5748 C.ar    1  UNL1        0.0020
@<TRIPOS>BOND
     1     9    10    2
     2    10    11    2
     3    10    12    1
     4    12    14    1
     5    14    15   ar
     6    15    16   ar
     7    16    17    1
     8    16    18   ar
     9    18    19   ar
    10    10     1    1
    11     1     2   ar
    12     2     3   ar
    13     3     4    1
    14     3     5   ar
    15     5    20    1
    16    20    22    1
    17    23    22    1
    18    23    24    1
    19    24    25    1
    20    25    26    1
    21    26    27    1
    22    27    28    2
    23    28    30    1
    24    30    31   ar
    25    31    32   ar
    26    32    33   ar
    27    33    34    1
    28    33    35   ar
    29    35    36   ar
    30     5     6   ar
    31     6     7   ar
    32     7     8    1
    33    19    14   ar
    34     7     1   ar
    35    28    23    1
    36    36    30   ar
    37    12    13    1
    38    20    21    1
    39    24    29    1
@<TRIPOS>MOLECULE
*****
 36 39 0 0 0
SMALL
GASTEIGER

@<TRIPOS>ATOM
      1 C          63.2922   85.6881   15.7280 C.ar    1  UNL1        0.1534
      2 C          63.9636   86.4779   14.6438 C.ar    1  UNL1        0.0351
      3 C          64.1603   87.9562   14.8049 C.ar    1  UNL1        0.0722
      4 CL         64.8317   88.7460   13.7207 Cl      1  UNL1       -0.0809
      5 C          63.6857   88.6447   16.0502 C.ar    1  UNL1        0.0577
      6 C          63.0143   87.8549   17.1344 C.ar    1  UNL1        0.0462
      7 C          62.8176   86.3766   16.9733 C.ar    1  UNL1        0.1602
      8 F          62.1462   85.5868   18.0575 F       1  UNL1       -0.2027
      9 O          61.6226   84.4259   15.3827 O.2     1  UNL1       -0.1498
     10 S          63.0955   84.2098   15.5670 S.O2    1  UNL1        0.0772
     11 O          64.5683   83.9936   15.7512 O.2     1  UNL1       -0.1498
     12 N          62.8987   82.7315   15.4059 N.pl3   1  UNL1       -0.1936
     13 H          62.7230   82.1695   16.1949 H       1  UNL1        0.1758
     14 C          62.9695   82.1096   14.0428 C.ar    1  UNL1        0.1794
     15 N          63.5026   82.7628   12.8022 N.ar    1  UNL1       -0.2114
     16 C          63.3822   81.7821   11.6736 C.ar    1  UNL1        0.1468
     17 CL         63.7966   82.0192   10.2517 Cl      1  UNL1       -0.0607
     18 C          62.7746   80.5227   12.2166 C.ar    1  UNL1        0.0689
     19 S          62.5195   80.7251   13.6810 S.2     1  UNL1       -0.0488
     20 N          63.8824   90.1230   16.2112 N.pl3   1  UNL1       -0.3306
     21 H          64.2376   90.4832   17.0558 H       1  UNL1        0.1469
     22 C          63.5380   91.0525   15.0855 C.3     1  UNL1        0.1075
     23 C          64.6100   91.8822   14.4432 C.3     1  UNL1        0.0963
     24 N          65.6317   92.5766   15.2939 N.3     1  UNL1       -0.2935
     25 C          66.7036   93.4063   14.6516 C.3     1  UNL1        0.0735
     26 C          66.7539   93.5415   13.1586 C.3     1  UNL1        0.0428
     27 C          65.7322   92.8471   12.3078 C.2     1  UNL1       -0.0276
     28 C          64.6602   92.0174   12.9501 C.2     1  UNL1       -0.0106
     29 H          66.1043   91.8533   15.8360 H       1  UNL1        0.1236
     30 C          63.6385   91.3229   12.0994 C.ar    1  UNL1       -0.0028
     31 C          63.7162   91.4199   10.6045 C.ar    1  UNL1        0.0020
     32 C          62.6945   90.7254    9.7538 C.ar    1  UNL1        0.0296
     33 C          61.5950   89.9340   10.3979 C.ar    1  UNL1        0.1401
     34 F          60.5733   89.2395    9.5471 F       1  UNL1       -0.2042
     35 C          61.5173   89.8370   11.8927 C.ar    1  UNL1        0.0296
     36 C          62.5390   90.5315   12.7435 C.ar    1  UNL1        0.0020
@<TRIPOS>BOND
     1     9    10    2
     2    10    11    2
     3    10    12    1
     4    12    14    1
     5    14    15   ar
     6    15    16   ar
     7    16    17    1
     8    16    18   ar
     9    18    19   ar
    10    10     1    1
    11     1     2   ar
    12     2     3   ar
    13     3     4    1
    14     3     5   ar
    15     5    20    1
    16    20    22    1
    17    23    22    1
    18    23    24    1
    19    24    25    1
    20    25    26    1
    21    26    27    1
    22    27    28    2
    23    28    30    1
    24    30    31   ar
    25    31    32   ar
    26    32    33   ar
    27    33    34    1
    28    33    35   ar
    29    35    36   ar
    30     5     6   ar
    31     6     7   ar
    32     7     8    1
    33    19    14   ar
    34     7     1   ar
    35    28    23    1
    36    36    30   ar
    37    12    13    1
    38    20    21    1
    39    24    29    1
