@<TRIPOS>MOLECULE
*****
 41 45 0 0 0
SMALL
GASTEIGER

@<TRIPOS>ATOM
      1 N          59.9950   90.3423    6.0955 N.am    1  UNL1       -0.2948
      2 C          59.2754   89.2905    6.8866 C.2     1  UNL1        0.2462
      3 O          57.7959   89.1078    6.7199 O.2     1  UNL1       -0.2701
      4 H          60.9660   90.4622    6.2049 H       1  UNL1        0.1501
      5 C          60.0352   88.4215    7.8445 C.ar    1  UNL1        0.0550
      6 C          60.1816   86.9539    7.5713 C.ar    1  UNL1        0.0061
      7 C          60.9414   86.0849    8.5292 C.ar    1  UNL1        0.0189
      8 C          61.5547   86.6835    9.7602 C.ar    1  UNL1        0.0788
      9 C          61.4083   88.1511   10.0334 C.ar    1  UNL1        0.0988
     10 C          60.6485   89.0201    9.0756 C.ar    1  UNL1        0.0251
     11 N          62.1169   88.4562   11.3198 N.ar    1  UNL1       -0.2267
     12 C          62.7014   87.1771   11.8416 C.ar    1  UNL1        0.1469
     13 N          62.3540   86.0815   10.8778 N.ar    1  UNL1       -0.3133
     14 C          62.7383   84.6375   11.0085 C.3     1  UNL1        0.0869
     15 C          62.1525   83.8020   12.1080 C.3     1  UNL1        0.0226
     16 C          62.5368   82.3580   12.2386 C.3     1  UNL1        0.0019
     17 C          63.5069   81.7494   11.2698 C.3     1  UNL1        0.0001
     18 C          64.0927   82.5849   10.1703 C.3     1  UNL1        0.0019
     19 C          63.7083   84.0289   10.0397 C.3     1  UNL1        0.0226
     20 C          63.4942   87.0210   13.1055 C.ar    1  UNL1        0.0748
     21 C          63.8614   85.7228   13.7612 C.ar    1  UNL1        0.0468
     22 C          64.6531   86.0353   14.9964 C.ar    1  UNL1        0.1799
     23 O          64.7751   87.5264   15.1040 O.2     1  UNL1       -0.4472
     24 C          64.0588   88.1356   13.9352 C.ar    1  UNL1        0.1827
     25 C          57.7435   91.3232    5.2478 C.3     1  UNL1        0.0312
     26 C          59.2352   91.2113    5.1376 C.3     1  UNL1        0.1491
     27 C          59.9672   91.9685    4.0695 C.2     1  UNL1        0.2440
     28 O          59.3725   93.2207    3.4963 O.2     1  UNL1       -0.2730
     29 N          61.2938   91.4736    3.5745 N.am    1  UNL1       -0.2826
     30 H          61.6841   90.6518    3.9507 H       1  UNL1        0.1549
     31 C          62.0258   92.2308    2.5064 C.ar    1  UNL1        0.0503
     32 C          61.3147   92.6268    1.2465 C.ar    1  UNL1        0.0147
     33 C          62.0467   93.3840    0.1784 C.ar    1  UNL1        0.0013
     34 C          63.4898   93.7452    0.3702 C.ar    1  UNL1        0.0001
     35 C          64.2010   93.3492    1.6301 C.ar    1  UNL1        0.0013
     36 C          63.4690   92.5920    2.6982 C.ar    1  UNL1        0.0147
     37 C          64.2218   94.5024   -0.6979 C.2     1  UNL1        0.0012
     38 C          63.9035   94.2573   -2.1430 C.2     1  UNL1        0.0151
     39 C          64.6355   95.0145   -3.2111 C.2     1  UNL1        0.0729
     40 O          64.6345   94.5091   -4.6234 O.co2   1  UNL1       -0.5446
     41 O          65.3685   96.2772   -2.8669 O.co2   1  UNL1       -0.5446
@<TRIPOS>UNITY_ATOM_ATTR
40 1
charge -1
@<TRIPOS>BOND
     1    26    25    1
     2    26     1    1
     3     1     2   am
     4     2     3    2
     5     2     5    1
     6     5     6   ar
     7     6     7   ar
     8     7     8   ar
     9     8     9   ar
    10     9    10   ar
    11     9    11   ar
    12    11    12   ar
    13    12    20    1
    14    20    21   ar
    15    21    22   ar
    16    22    23   ar
    17    23    24   ar
    18    12    13   ar
    19    13    14    1
    20    14    15    1
    21    15    16    1
    22    16    17    1
    23    17    18    1
    24    18    19    1
    25    26    27    1
    26    27    28    2
    27    27    29   am
    28    29    31    1
    29    31    32   ar
    30    32    33   ar
    31    33    34   ar
    32    34    37    1
    33    37    38    2
    34    38    39    1
    35    39    40   ar
    36    39    41   ar
    37    34    35   ar
    38    35    36   ar
    39    10     5   ar
    40    24    20   ar
    41    19    14    1
    42    36    31   ar
    43    13     8   ar
    44     1     4    1
    45    29    30    1
@<TRIPOS>MOLECULE
*****
 41 45 0 0 0
SMALL
GASTEIGER

@<TRIPOS>ATOM
      1 N          60.0663   90.2214    6.1772 N.am    1  UNL1       -0.2948
      2 C          59.3314   89.1910    6.9823 C.2     1  UNL1        0.2462
      3 O          57.8466   89.0407    6.8320 O.2     1  UNL1       -0.2701
      4 H          61.0409   90.3200    6.2759 H       1  UNL1        0.1501
      5 C          60.0814   88.3109    7.9379 C.ar    1  UNL1        0.0550
      6 C          60.2063   86.8415    7.6638 C.ar    1  UNL1        0.0061
      7 C          60.9562   85.9615    8.6194 C.ar    1  UNL1        0.0189
      8 C          61.5813   86.5509    9.8490 C.ar    1  UNL1        0.0788
      9 C          61.4564   88.0203   10.1230 C.ar    1  UNL1        0.0988
     10 C          60.7065   88.9003    9.1675 C.ar    1  UNL1        0.0251
     11 N          62.1728   88.3147   11.4075 N.ar    1  UNL1       -0.2267
     12 C          62.7405   87.0273   11.9274 C.ar    1  UNL1        0.1469
     13 N          62.3749   85.9371   10.9641 N.ar    1  UNL1       -0.3133
     14 C          62.7390   84.4877   11.0933 C.3     1  UNL1        0.0869
     15 C          62.1015   83.6464   12.1590 C.3     1  UNL1        0.0226
     16 C          62.4656   82.1970   12.2881 C.3     1  UNL1        0.0019
     17 C          63.4672   81.5890   11.3516 C.3     1  UNL1        0.0001
     18 C          64.1048   82.4304   10.2859 C.3     1  UNL1        0.0019
     19 C          63.7406   83.8797   10.1568 C.3     1  UNL1        0.0226
     20 C          63.5344   86.8595   13.1890 C.ar    1  UNL1        0.0748
     21 C          63.9218   85.5549   13.8200 C.ar    1  UNL1        0.0468
     22 C          64.7071   85.8561   15.0621 C.ar    1  UNL1        0.1799
     23 O          64.8049   87.3466   15.1987 O.2     1  UNL1       -0.4472
     24 C          64.0801   87.9668   14.0410 C.ar    1  UNL1        0.1827
     25 C          57.8359   91.2864    5.3766 C.3     1  UNL1        0.0312
     26 C          59.3163   91.1015    5.2216 C.3     1  UNL1        0.1491
     27 C          60.0469   91.7966    4.1112 C.2     1  UNL1        0.2440
     28 O          61.5443   91.7370    4.0459 O.2     1  UNL1       -0.2730
     29 N          59.2800   92.5512    3.0659 N.am    1  UNL1       -0.2826
     30 H          58.2972   92.5902    3.1088 H       1  UNL1        0.1549
     31 C          60.0106   93.2463    1.9555 C.ar    1  UNL1        0.0503
     32 C          60.3854   94.6920    2.0940 C.ar    1  UNL1        0.0147
     33 C          61.1160   95.3871    0.9835 C.ar    1  UNL1        0.0013
     34 C          61.4716   94.6365   -0.2655 C.ar    1  UNL1        0.0001
     35 C          61.0968   93.1907   -0.4040 C.ar    1  UNL1        0.0013
     36 C          60.3662   92.4956    0.7065 C.ar    1  UNL1        0.0147
     37 C          62.2022   95.3316   -1.3759 C.2     1  UNL1        0.0012
     38 C          63.6938   95.2140   -1.4813 C.2     1  UNL1        0.0151
     39 C          64.4243   95.9091   -2.5918 C.2     1  UNL1        0.0729
     40 O          63.8665   95.8897   -3.9840 O.co2   1  UNL1       -0.5446
     41 O          65.7128   96.6237   -2.3100 O.co2   1  UNL1       -0.5446
@<TRIPOS>UNITY_ATOM_ATTR
40 1
charge -1
@<TRIPOS>BOND
     1    26    25    1
     2    26     1    1
     3     1     2   am
     4     2     3    2
     5     2     5    1
     6     5     6   ar
     7     6     7   ar
     8     7     8   ar
     9     8     9   ar
    10     9    10   ar
    11     9    11   ar
    12    11    12   ar
    13    12    20    1
    14    20    21   ar
    15    21    22   ar
    16    22    23   ar
    17    23    24   ar
    18    12    13   ar
    19    13    14    1
    20    14    15    1
    21    15    16    1
    22    16    17    1
    23    17    18    1
    24    18    19    1
    25    26    27    1
    26    27    28    2
    27    27    29   am
    28    29    31    1
    29    31    32   ar
    30    32    33   ar
    31    33    34   ar
    32    34    37    1
    33    37    38    2
    34    38    39    1
    35    39    40   ar
    36    39    41   ar
    37    34    35   ar
    38    35    36   ar
    39    10     5   ar
    40    24    20   ar
    41    19    14    1
    42    36    31   ar
    43    13     8   ar
    44     1     4    1
    45    29    30    1
@<TRIPOS>MOLECULE
*****
 41 45 0 0 0
SMALL
GASTEIGER

@<TRIPOS>ATOM
      1 N          59.9464   90.4836    6.2690 N.am    1  UNL1       -0.2948
      2 C          59.3503   89.3563    7.0588 C.2     1  UNL1        0.2462
      3 O          57.9526   88.8948    6.7696 O.2     1  UNL1       -0.2701
      4 H          60.8637   90.7865    6.4588 H       1  UNL1        0.1501
      5 C          60.1519   88.6904    8.1378 C.ar    1  UNL1        0.0550
      6 C          60.6394   89.4883    9.3107 C.ar    1  UNL1        0.0061
      7 C          61.4409   88.8225   10.3896 C.ar    1  UNL1        0.0189
      8 C          61.7549   87.3587   10.2957 C.ar    1  UNL1        0.0788
      9 C          61.2674   86.5608    9.1228 C.ar    1  UNL1        0.0988
     10 C          60.4659   87.2267    8.0439 C.ar    1  UNL1        0.0251
     11 N          61.7293   85.1449    9.3012 N.ar    1  UNL1       -0.2267
     12 C          62.5023   85.0677   10.5844 C.ar    1  UNL1        0.1469
     13 N          62.5182   86.4359   11.1990 N.ar    1  UNL1       -0.3133
     14 C          63.1808   86.8148   12.4902 C.3     1  UNL1        0.0869
     15 C          63.5512   85.7531   13.4830 C.3     1  UNL1        0.0226
     16 C          64.2139   86.1321   14.7742 C.3     1  UNL1        0.0019
     17 C          64.5062   87.5728   15.0726 C.3     1  UNL1        0.0001
     18 C          64.1358   88.6345   14.0799 C.3     1  UNL1        0.0019
     19 C          63.4732   88.2555   12.7887 C.3     1  UNL1        0.0226
     20 C          63.1464   83.8381   11.1531 C.ar    1  UNL1        0.0748
     21 C          62.5211   82.8867   12.1297 C.ar    1  UNL1        0.0468
     22 C          63.5171   81.8047   12.4252 C.ar    1  UNL1        0.1799
     23 O          64.7579   82.0875   11.6312 O.2     1  UNL1       -0.4472
     24 C          64.5288   83.3443   10.8450 C.ar    1  UNL1        0.1827
     25 C          57.6460   91.1198    5.2424 C.3     1  UNL1        0.0312
     26 C          59.1448   91.1495    5.1900 C.3     1  UNL1        0.1491
     27 C          59.8420   91.8449    4.0585 C.2     1  UNL1        0.2440
     28 O          59.0626   92.7191    3.1212 O.2     1  UNL1       -0.2730
     29 N          61.3186   91.6663    3.8644 N.am    1  UNL1       -0.2826
     30 H          61.8301   91.0926    4.4796 H       1  UNL1        0.1549
     31 C          62.0159   92.3617    2.7329 C.ar    1  UNL1        0.0503
     32 C          61.2308   93.2074    1.7746 C.ar    1  UNL1        0.0147
     33 C          61.9281   93.9029    0.6432 C.ar    1  UNL1        0.0013
     34 C          63.4104   93.7527    0.4701 C.ar    1  UNL1        0.0001
     35 C          64.1955   92.9070    1.4284 C.ar    1  UNL1        0.0013
     36 C          63.4982   92.2115    2.5598 C.ar    1  UNL1        0.0147
     37 C          64.1077   94.4481   -0.6614 C.2     1  UNL1        0.0012
     38 C          63.7660   94.1005   -2.0799 C.2     1  UNL1        0.0151
     39 C          64.4632   94.7960   -3.2114 C.2     1  UNL1        0.0729
     40 O          64.9830   96.1910   -3.0279 O.co2   1  UNL1       -0.5446
     41 O          64.6407   94.0964   -4.5264 O.co2   1  UNL1       -0.5446
@<TRIPOS>UNITY_ATOM_ATTR
40 1
charge -1
@<TRIPOS>BOND
     1    26    25    1
     2    26     1    1
     3     1     2   am
     4     2     3    2
     5     2     5    1
     6     5     6   ar
     7     6     7   ar
     8     7     8   ar
     9     8     9   ar
    10     9    10   ar
    11     9    11   ar
    12    11    12   ar
    13    12    20    1
    14    20    21   ar
    15    21    22   ar
    16    22    23   ar
    17    23    24   ar
    18    12    13   ar
    19    13    14    1
    20    14    15    1
    21    15    16    1
    22    16    17    1
    23    17    18    1
    24    18    19    1
    25    26    27    1
    26    27    28    2
    27    27    29   am
    28    29    31    1
    29    31    32   ar
    30    32    33   ar
    31    33    34   ar
    32    34    37    1
    33    37    38    2
    34    38    39    1
    35    39    40   ar
    36    39    41   ar
    37    34    35   ar
    38    35    36   ar
    39    10     5   ar
    40    24    20   ar
    41    19    14    1
    42    36    31   ar
    43    13     8   ar
    44     1     4    1
    45    29    30    1
@<TRIPOS>MOLECULE
*****
 41 45 0 0 0
SMALL
GASTEIGER

@<TRIPOS>ATOM
      1 N          59.9442   90.5591    6.2174 N.am    1  UNL1       -0.2948
      2 C          59.3492   89.4240    6.9967 C.2     1  UNL1        0.2462
      3 O          57.9555   88.9575    6.6966 O.2     1  UNL1       -0.2701
      4 H          60.8589   90.8653    6.4144 H       1  UNL1        0.1501
      5 C          60.1478   88.7553    8.0762 C.ar    1  UNL1        0.0550
      6 C          60.6342   89.5506    9.2512 C.ar    1  UNL1        0.0061
      7 C          61.4327   88.8819   10.3306 C.ar    1  UNL1        0.0189
      8 C          61.7449   87.4179   10.2349 C.ar    1  UNL1        0.0788
      9 C          61.2585   86.6226    9.0599 C.ar    1  UNL1        0.0988
     10 C          60.4599   87.2912    7.9805 C.ar    1  UNL1        0.0251
     11 N          61.7181   85.2057    9.2369 N.ar    1  UNL1       -0.2267
     12 C          62.4886   85.1254   10.5215 C.ar    1  UNL1        0.1469
     13 N          62.5052   86.4926   11.1383 N.ar    1  UNL1       -0.3133
     14 C          63.1659   86.8686   12.4313 C.3     1  UNL1        0.0869
     15 C          63.4458   88.3097   12.7394 C.3     1  UNL1        0.0226
     16 C          64.1066   88.6855   14.0324 C.3     1  UNL1        0.0019
     17 C          64.4874   87.6203   15.0175 C.3     1  UNL1        0.0001
     18 C          64.2076   86.1792   14.7094 C.3     1  UNL1        0.0019
     19 C          63.5468   85.8034   13.4164 C.3     1  UNL1        0.0226
     20 C          63.1299   83.8940   11.0894 C.ar    1  UNL1        0.0748
     21 C          62.5066   82.9496   12.0741 C.ar    1  UNL1        0.0468
     22 C          63.4986   81.8628   12.3656 C.ar    1  UNL1        0.1799
     23 O          64.7348   82.1356   11.5611 O.2     1  UNL1       -0.4472
     24 C          64.5069   83.3910   10.7723 C.ar    1  UNL1        0.1827
     25 C          57.6490   91.2703    5.2293 C.3     1  UNL1        0.0312
     26 C          59.1456   91.2278    5.1380 C.3     1  UNL1        0.1491
     27 C          59.8437   91.8539    3.9672 C.2     1  UNL1        0.2440
     28 O          61.3419   91.8423    3.8933 O.2     1  UNL1       -0.2730
     29 N          59.0436   92.4917    2.8703 N.am    1  UNL1       -0.2826
     30 H          58.0604   92.4993    2.9188 H       1  UNL1        0.1549
     31 C          59.7417   93.1178    1.6996 C.ar    1  UNL1        0.0503
     32 C          60.3306   94.4917    1.8245 C.ar    1  UNL1        0.0147
     33 C          61.0286   95.1178    0.6538 C.ar    1  UNL1        0.0013
     34 C          61.1378   94.3701   -0.6419 C.ar    1  UNL1        0.0001
     35 C          60.5489   92.9962   -0.7669 C.ar    1  UNL1        0.0013
     36 C          59.8509   92.3701    0.4039 C.ar    1  UNL1        0.0147
     37 C          61.8359   94.9962   -1.8127 C.2     1  UNL1        0.0012
     38 C          63.0164   94.3120   -2.4356 C.2     1  UNL1        0.0151
     39 C          63.7145   94.9381   -3.6064 C.2     1  UNL1        0.0729
     40 O          63.1193   94.8317   -4.9791 O.co2   1  UNL1       -0.5446
     41 O          65.0078   95.6707   -3.4044 O.co2   1  UNL1       -0.5446
@<TRIPOS>UNITY_ATOM_ATTR
40 1
charge -1
@<TRIPOS>BOND
     1    26    25    1
     2    26     1    1
     3     1     2   am
     4     2     3    2
     5     2     5    1
     6     5     6   ar
     7     6     7   ar
     8     7     8   ar
     9     8     9   ar
    10     9    10   ar
    11     9    11   ar
    12    11    12   ar
    13    12    20    1
    14    20    21   ar
    15    21    22   ar
    16    22    23   ar
    17    23    24   ar
    18    12    13   ar
    19    13    14    1
    20    14    15    1
    21    15    16    1
    22    16    17    1
    23    17    18    1
    24    18    19    1
    25    26    27    1
    26    27    28    2
    27    27    29   am
    28    29    31    1
    29    31    32   ar
    30    32    33   ar
    31    33    34   ar
    32    34    37    1
    33    37    38    2
    34    38    39    1
    35    39    40   ar
    36    39    41   ar
    37    34    35   ar
    38    35    36   ar
    39    10     5   ar
    40    24    20   ar
    41    19    14    1
    42    36    31   ar
    43    13     8   ar
    44     1     4    1
    45    29    30    1
@<TRIPOS>MOLECULE
*****
 41 45 0 0 0
SMALL
GASTEIGER

@<TRIPOS>ATOM
      1 N          58.8458   91.6244    3.2950 N.am    1  UNL1       -0.2948
      2 C          59.5622   92.9168    3.0372 C.2     1  UNL1        0.2462
      3 O          59.8022   93.8787    4.1629 O.2     1  UNL1       -0.2701
      4 H          58.6882   90.9931    2.5562 H       1  UNL1        0.1501
      5 C          60.0386   93.2472    1.6538 C.ar    1  UNL1        0.0550
      6 C          61.5055   93.2283    1.3412 C.ar    1  UNL1        0.0061
      7 C          61.9819   93.5587   -0.0422 C.ar    1  UNL1        0.0189
      8 C          60.9913   93.9081   -1.1130 C.ar    1  UNL1        0.0788
      9 C          59.5244   93.9271   -0.8005 C.ar    1  UNL1        0.0988
     10 C          59.0481   93.5967    0.5829 C.ar    1  UNL1        0.0251
     11 N          58.7888   94.3063   -2.0515 N.ar    1  UNL1       -0.2267
     12 C          59.8011   94.5217   -3.1373 C.ar    1  UNL1        0.1469
     13 N          61.1624   94.2756   -2.5573 N.ar    1  UNL1       -0.3133
     14 C          62.4658   94.3789   -3.2924 C.3     1  UNL1        0.0869
     15 C          63.0958   93.1501   -3.8783 C.3     1  UNL1        0.0226
     16 C          64.3992   93.2534   -4.6134 C.3     1  UNL1        0.0019
     17 C          65.0726   94.5854   -4.7626 C.3     1  UNL1        0.0001
     18 C          64.4426   95.8142   -4.1767 C.3     1  UNL1        0.0019
     19 C          63.1392   95.7109   -3.4417 C.3     1  UNL1        0.0226
     20 C          59.5042   94.9142   -4.5543 C.ar    1  UNL1        0.0748
     21 C          58.7493   94.0928   -5.5570 C.ar    1  UNL1        0.0468
     22 C          58.6887   94.8681   -6.8397 C.ar    1  UNL1        0.1799
     23 O          59.4061   96.1685   -6.6297 O.2     1  UNL1       -0.4472
     24 C          59.9101   96.1970   -5.2171 C.ar    1  UNL1        0.1827
     25 C          57.0723   91.8567    5.1794 C.3     1  UNL1        0.0312
     26 C          58.3693   91.2940    4.6785 C.3     1  UNL1        0.1491
     27 C          59.1900   90.4008    5.5609 C.2     1  UNL1        0.2440
     28 O          60.6878   90.4614    5.5042 O.2     1  UNL1       -0.2730
     29 N          58.5130   89.4471    6.5001 N.am    1  UNL1       -0.2826
     30 H          57.5301   89.4074    6.5374 H       1  UNL1        0.1549
     31 C          59.3337   88.5540    7.3826 C.ar    1  UNL1        0.0503
     32 C          59.3662   87.0756    7.1310 C.ar    1  UNL1        0.0147
     33 C          60.1869   86.1825    8.0134 C.ar    1  UNL1        0.0013
     34 C          60.9751   86.7677    9.1475 C.ar    1  UNL1        0.0001
     35 C          60.9426   88.2461    9.3992 C.ar    1  UNL1        0.0013
     36 C          60.1219   89.1392    8.5167 C.ar    1  UNL1        0.0147
     37 C          61.7958   85.8745   10.0300 C.2     1  UNL1        0.0012
     38 C          61.8600   86.1325   11.5062 C.2     1  UNL1        0.0151
     39 C          62.6807   85.2393   12.3887 C.2     1  UNL1        0.0729
     40 O          63.4665   85.8242   13.5247 O.co2   1  UNL1       -0.5446
     41 O          62.7156   83.7613   12.1351 O.co2   1  UNL1       -0.5446
@<TRIPOS>UNITY_ATOM_ATTR
40 1
charge -1
@<TRIPOS>BOND
     1    26    25    1
     2    26     1    1
     3     1     2   am
     4     2     3    2
     5     2     5    1
     6     5     6   ar
     7     6     7   ar
     8     7     8   ar
     9     8     9   ar
    10     9    10   ar
    11     9    11   ar
    12    11    12   ar
    13    12    20    1
    14    20    21   ar
    15    21    22   ar
    16    22    23   ar
    17    23    24   ar
    18    12    13   ar
    19    13    14    1
    20    14    15    1
    21    15    16    1
    22    16    17    1
    23    17    18    1
    24    18    19    1
    25    26    27    1
    26    27    28    2
    27    27    29   am
    28    29    31    1
    29    31    32   ar
    30    32    33   ar
    31    33    34   ar
    32    34    37    1
    33    37    38    2
    34    38    39    1
    35    39    40   ar
    36    39    41   ar
    37    34    35   ar
    38    35    36   ar
    39    10     5   ar
    40    24    20   ar
    41    19    14    1
    42    36    31   ar
    43    13     8   ar
    44     1     4    1
    45    29    30    1
@<TRIPOS>MOLECULE
*****
 41 45 0 0 0
SMALL
GASTEIGER

@<TRIPOS>ATOM
      1 N          59.8751   88.4607    6.7549 N.am    1  UNL1       -0.2948
      2 C          59.6955   89.9486    6.8172 C.2     1  UNL1        0.2462
      3 O          59.3764   90.6114    8.1245 O.2     1  UNL1       -0.2701
      4 H          60.0846   88.0257    5.8969 H       1  UNL1        0.1501
      5 C          59.8349   90.7737    5.5723 C.ar    1  UNL1        0.0550
      6 C          58.6294   91.4327    4.9704 C.ar    1  UNL1        0.0061
      7 C          58.7689   92.2578    3.7255 C.ar    1  UNL1        0.0189
      8 C          60.1139   92.4239    3.0826 C.ar    1  UNL1        0.0788
      9 C          61.3195   91.7649    3.6845 C.ar    1  UNL1        0.0988
     10 C          61.1800   90.9398    4.9294 C.ar    1  UNL1        0.0251
     11 N          62.5071   92.1055    2.8340 N.ar    1  UNL1       -0.2267
     12 C          62.0356   92.9751    1.7063 C.ar    1  UNL1        0.1469
     13 N          60.5565   93.1719    1.8599 N.ar    1  UNL1       -0.3133
     14 C          59.6748   93.9755    0.9507 C.3     1  UNL1        0.0869
     15 C          59.7987   95.4699    0.9140 C.3     1  UNL1        0.0226
     16 C          58.9169   96.2734    0.0048 C.3     1  UNL1        0.0019
     17 C          57.9114   95.5826   -0.8679 C.3     1  UNL1        0.0001
     18 C          57.7875   94.0882   -0.8313 C.3     1  UNL1        0.0019
     19 C          58.6692   93.2847    0.0780 C.3     1  UNL1        0.0226
     20 C          62.8927   93.5474    0.6164 C.ar    1  UNL1        0.0748
     21 C          62.6226   93.4578   -0.8564 C.ar    1  UNL1        0.0468
     22 C          63.7334   94.1648   -1.5751 C.ar    1  UNL1        0.1799
     23 O          64.6898   94.6912   -0.5465 O.2     1  UNL1       -0.4472
     24 C          64.1702   94.3096    0.8080 C.ar    1  UNL1        0.1827
     25 C          58.9324   86.3691    7.9740 C.3     1  UNL1        0.0312
     26 C          59.7357   87.6355    7.9998 C.3     1  UNL1        0.1491
     27 C          60.3995   88.0769    9.2704 C.2     1  UNL1        0.2440
     28 O          59.7023   87.8893   10.5852 O.2     1  UNL1       -0.2730
     29 N          61.7605   88.7059    9.2262 N.am    1  UNL1       -0.2826
     30 H          62.2181   88.8290    8.3632 H       1  UNL1        0.1549
     31 C          62.4244   89.1473   10.4968 C.ar    1  UNL1        0.0503
     32 C          62.7435   90.5971   10.7118 C.ar    1  UNL1        0.0147
     33 C          63.4073   91.0385   11.9825 C.ar    1  UNL1        0.0013
     34 C          63.7521   90.0301   13.0380 C.ar    1  UNL1        0.0001
     35 C          63.4331   88.5803   12.8230 C.ar    1  UNL1        0.0013
     36 C          62.7692   88.1389   11.5524 C.ar    1  UNL1        0.0147
     37 C          64.4160   90.4715   14.3086 C.2     1  UNL1        0.0012
     38 C          65.3372   91.6552   14.3015 C.2     1  UNL1        0.0151
     39 C          66.0011   92.0966   15.5721 C.2     1  UNL1        0.0729
     40 O          65.1762   92.6485   16.6968 O.co2   1  UNL1       -0.5446
     41 O          67.4899   91.9861   15.7180 O.co2   1  UNL1       -0.5446
@<TRIPOS>UNITY_ATOM_ATTR
40 1
charge -1
@<TRIPOS>BOND
     1    26    25    1
     2    26     1    1
     3     1     2   am
     4     2     3    2
     5     2     5    1
     6     5     6   ar
     7     6     7   ar
     8     7     8   ar
     9     8     9   ar
    10     9    10   ar
    11     9    11   ar
    12    11    12   ar
    13    12    20    1
    14    20    21   ar
    15    21    22   ar
    16    22    23   ar
    17    23    24   ar
    18    12    13   ar
    19    13    14    1
    20    14    15    1
    21    15    16    1
    22    16    17    1
    23    17    18    1
    24    18    19    1
    25    26    27    1
    26    27    28    2
    27    27    29   am
    28    29    31    1
    29    31    32   ar
    30    32    33   ar
    31    33    34   ar
    32    34    37    1
    33    37    38    2
    34    38    39    1
    35    39    40   ar
    36    39    41   ar
    37    34    35   ar
    38    35    36   ar
    39    10     5   ar
    40    24    20   ar
    41    19    14    1
    42    36    31   ar
    43    13     8   ar
    44     1     4    1
    45    29    30    1
@<TRIPOS>MOLECULE
*****
 41 45 0 0 0
SMALL
GASTEIGER

@<TRIPOS>ATOM
      1 N          59.7117   90.6639    6.8242 N.am    1  UNL1       -0.2948
      2 C          59.7592   89.2899    7.4239 C.2     1  UNL1        0.2462
      3 O          58.9931   88.1674    6.7888 O.2     1  UNL1       -0.2701
      4 H          60.2145   91.4006    7.2410 H       1  UNL1        0.1501
      5 C          60.5728   89.0382    8.6587 C.ar    1  UNL1        0.0550
      6 C          60.8490   87.6318    9.1012 C.ar    1  UNL1        0.0061
      7 C          61.6625   87.3802   10.3360 C.ar    1  UNL1        0.0189
      8 C          62.2000   88.5349   11.1283 C.ar    1  UNL1        0.0788
      9 C          61.9239   89.9413   10.6858 C.ar    1  UNL1        0.0988
     10 C          61.1103   90.1929    9.4510 C.ar    1  UNL1        0.0251
     11 N          62.5804   90.8717   11.6622 N.ar    1  UNL1       -0.2267
     12 C          63.2623   90.0404   12.7081 C.ar    1  UNL1        0.1469
     13 N          63.0272   88.5962   12.3782 N.ar    1  UNL1       -0.3133
     14 C          63.5309   87.4197   13.1606 C.3     1  UNL1        0.0869
     15 C          63.2479   86.0257   12.6846 C.3     1  UNL1        0.0226
     16 C          63.7516   84.8493   13.4671 C.3     1  UNL1        0.0019
     17 C          64.5382   85.0669   14.7256 C.3     1  UNL1        0.0001
     18 C          64.8212   86.4609   15.2017 C.3     1  UNL1        0.0019
     19 C          64.3175   87.6373   14.4192 C.3     1  UNL1        0.0226
     20 C          64.0423   90.5618   13.8785 C.ar    1  UNL1        0.0748
     21 C          65.4658   91.0339   13.8494 C.ar    1  UNL1        0.0468
     22 C          65.8390   91.4666   15.2364 C.ar    1  UNL1        0.1799
     23 O          64.6462   91.2619   16.1225 O.2     1  UNL1       -0.4472
     24 C          63.5357   90.7027   15.2832 C.ar    1  UNL1        0.1827
     25 C          57.4635   90.4810    5.5349 C.3     1  UNL1        0.0312
     26 C          58.8981   90.9156    5.5894 C.3     1  UNL1        0.1491
     27 C          59.5191   91.6019    4.4090 C.2     1  UNL1        0.2440
     28 O          58.6494   92.2838    3.3948 O.2     1  UNL1       -0.2730
     29 N          61.0099   91.6063    4.2428 N.am    1  UNL1       -0.2826
     30 H          61.5807   91.1587    4.9085 H       1  UNL1        0.1549
     31 C          61.6309   92.2926    3.0624 C.ar    1  UNL1        0.0503
     32 C          60.8161   93.2376    2.2301 C.ar    1  UNL1        0.0147
     33 C          61.4371   93.9239    1.0497 C.ar    1  UNL1        0.0013
     34 C          62.8731   93.6652    0.7017 C.ar    1  UNL1        0.0001
     35 C          63.6879   92.7202    1.5341 C.ar    1  UNL1        0.0013
     36 C          63.0669   92.0339    2.7144 C.ar    1  UNL1        0.0147
     37 C          63.4941   94.3515   -0.4787 C.2     1  UNL1        0.0012
     38 C          63.5416   93.6599   -1.8089 C.2     1  UNL1        0.0151
     39 C          64.1627   94.3462   -2.9892 C.2     1  UNL1        0.0729
     40 O          64.0818   93.7192   -4.3495 O.co2   1  UNL1       -0.5446
     41 O          64.8647   95.6596   -2.8093 O.co2   1  UNL1       -0.5446
@<TRIPOS>UNITY_ATOM_ATTR
40 1
charge -1
@<TRIPOS>BOND
     1    26    25    1
     2    26     1    1
     3     1     2   am
     4     2     3    2
     5     2     5    1
     6     5     6   ar
     7     6     7   ar
     8     7     8   ar
     9     8     9   ar
    10     9    10   ar
    11     9    11   ar
    12    11    12   ar
    13    12    20    1
    14    20    21   ar
    15    21    22   ar
    16    22    23   ar
    17    23    24   ar
    18    12    13   ar
    19    13    14    1
    20    14    15    1
    21    15    16    1
    22    16    17    1
    23    17    18    1
    24    18    19    1
    25    26    27    1
    26    27    28    2
    27    27    29   am
    28    29    31    1
    29    31    32   ar
    30    32    33   ar
    31    33    34   ar
    32    34    37    1
    33    37    38    2
    34    38    39    1
    35    39    40   ar
    36    39    41   ar
    37    34    35   ar
    38    35    36   ar
    39    10     5   ar
    40    24    20   ar
    41    19    14    1
    42    36    31   ar
    43    13     8   ar
    44     1     4    1
    45    29    30    1
@<TRIPOS>MOLECULE
*****
 41 45 0 0 0
SMALL
GASTEIGER

@<TRIPOS>ATOM
      1 N          60.5055   90.0612    6.4863 N.am    1  UNL1       -0.2948
      2 C          59.4931   90.7434    5.6147 C.2     1  UNL1        0.2462
      3 O          58.0360   90.6775    5.9647 O.2     1  UNL1       -0.2701
      4 H          61.4618   90.1046    6.2566 H       1  UNL1        0.1501
      5 C          59.9379   91.4917    4.3931 C.ar    1  UNL1        0.0550
      6 C          61.4008   91.6698    4.1138 C.ar    1  UNL1        0.0061
      7 C          61.8455   92.4180    2.8922 C.ar    1  UNL1        0.0189
      8 C          60.8272   92.9881    1.9498 C.ar    1  UNL1        0.0788
      9 C          59.3643   92.8101    2.2291 C.ar    1  UNL1        0.0988
     10 C          58.9196   92.0619    3.4507 C.ar    1  UNL1        0.0251
     11 N          58.5973   93.4790    1.1271 N.ar    1  UNL1       -0.2267
     12 C          59.5862   94.0704    0.1668 C.ar    1  UNL1        0.1469
     13 N          60.9644   93.7671    0.6752 N.ar    1  UNL1       -0.3133
     14 C          62.2535   94.1717    0.0236 C.3     1  UNL1        0.0869
     15 C          63.1469   95.1766    0.6883 C.3     1  UNL1        0.0226
     16 C          64.4359   95.5811    0.0366 C.3     1  UNL1        0.0019
     17 C          64.8315   94.9807   -1.2798 C.3     1  UNL1        0.0001
     18 C          63.9381   93.9757   -1.9445 C.3     1  UNL1        0.0019
     19 C          62.6491   93.5712   -1.2928 C.3     1  UNL1        0.0226
     20 C          59.2550   94.8316   -1.0826 C.ar    1  UNL1        0.0748
     21 C          59.0037   94.2371   -2.4367 C.ar    1  UNL1        0.0468
     22 C          58.7104   95.3591   -3.3882 C.ar    1  UNL1        0.1799
     23 O          58.7804   96.6468   -2.6222 O.2     1  UNL1       -0.4472
     24 C          59.1171   96.3208   -1.1971 C.ar    1  UNL1        0.1827
     25 C          59.0312   88.2286    7.5899 C.3     1  UNL1        0.0312
     26 C          60.0607   89.3130    7.7080 C.3     1  UNL1        0.1491
     27 C          60.6456   89.6492    9.0477 C.2     1  UNL1        0.2440
     28 O          59.7705   90.2123   10.1282 O.2     1  UNL1       -0.2730
     29 N          62.1055   89.4224    9.3070 N.am    1  UNL1       -0.2826
     30 H          62.6798   89.0529    8.5979 H       1  UNL1        0.1549
     31 C          62.6903   89.7587   10.6468 C.ar    1  UNL1        0.0503
     32 C          63.1965   91.1444   10.9177 C.ar    1  UNL1        0.0147
     33 C          63.7814   91.4806   12.2575 C.ar    1  UNL1        0.0013
     34 C          63.8601   90.4311   13.3262 C.ar    1  UNL1        0.0001
     35 C          63.3540   89.0454   13.0552 C.ar    1  UNL1        0.0013
     36 C          62.7691   88.7091   11.7155 C.ar    1  UNL1        0.0147
     37 C          64.4450   90.7673   14.6659 C.2     1  UNL1        0.0012
     38 C          65.3139   91.9800   14.8220 C.2     1  UNL1        0.0151
     39 C          65.8988   92.3162   16.1617 C.2     1  UNL1        0.0729
     40 O          67.3849   92.4436   16.3207 O.co2   1  UNL1       -0.5446
     41 O          64.9975   92.5250   17.3425 O.co2   1  UNL1       -0.5446
@<TRIPOS>UNITY_ATOM_ATTR
40 1
charge -1
@<TRIPOS>BOND
     1    26    25    1
     2    26     1    1
     3     1     2   am
     4     2     3    2
     5     2     5    1
     6     5     6   ar
     7     6     7   ar
     8     7     8   ar
     9     8     9   ar
    10     9    10   ar
    11     9    11   ar
    12    11    12   ar
    13    12    20    1
    14    20    21   ar
    15    21    22   ar
    16    22    23   ar
    17    23    24   ar
    18    12    13   ar
    19    13    14    1
    20    14    15    1
    21    15    16    1
    22    16    17    1
    23    17    18    1
    24    18    19    1
    25    26    27    1
    26    27    28    2
    27    27    29   am
    28    29    31    1
    29    31    32   ar
    30    32    33   ar
    31    33    34   ar
    32    34    37    1
    33    37    38    2
    34    38    39    1
    35    39    40   ar
    36    39    41   ar
    37    34    35   ar
    38    35    36   ar
    39    10     5   ar
    40    24    20   ar
    41    19    14    1
    42    36    31   ar
    43    13     8   ar
    44     1     4    1
    45    29    30    1
@<TRIPOS>MOLECULE
*****
 41 45 0 0 0
SMALL
GASTEIGER

@<TRIPOS>ATOM
      1 N          59.7031   90.5615    5.2037 N.am    1  UNL1       -0.2948
      2 C          58.9960   91.6467    4.4473 C.2     1  UNL1        0.2462
      3 O          57.5806   92.0025    4.7938 O.2     1  UNL1       -0.2701
      4 H          60.6321   90.3279    4.9763 H       1  UNL1        0.1501
      5 C          59.7042   92.3761    3.3444 C.ar    1  UNL1        0.0550
      6 C          61.1428   92.7683    3.5074 C.ar    1  UNL1        0.0061
      7 C          61.8509   93.4977    2.4045 C.ar    1  UNL1        0.0189
      8 C          61.1205   93.8349    1.1385 C.ar    1  UNL1        0.0788
      9 C          59.6819   93.4427    0.9754 C.ar    1  UNL1        0.0988
     10 C          58.9738   92.7133    2.0783 C.ar    1  UNL1        0.0251
     11 N          59.2252   93.9071   -0.3758 N.ar    1  UNL1       -0.2267
     12 C          60.3815   94.5864   -1.0478 C.ar    1  UNL1        0.1469
     13 N          61.5528   94.5418   -0.1119 N.ar    1  UNL1       -0.3133
     14 C          62.9171   95.1051   -0.3794 C.3     1  UNL1        0.0869
     15 C          63.5895   94.8487   -1.6955 C.3     1  UNL1        0.0226
     16 C          64.9537   95.4120   -1.9629 C.3     1  UNL1        0.0019
     17 C          65.6455   96.2318   -0.9144 C.3     1  UNL1        0.0001
     18 C          64.9730   96.4882    0.4017 C.3     1  UNL1        0.0019
     19 C          63.6088   95.9248    0.6691 C.3     1  UNL1        0.0226
     20 C          60.3686   95.2022   -2.4155 C.ar    1  UNL1        0.0748
     21 C          60.3186   94.4580   -3.7170 C.ar    1  UNL1        0.0468
     22 C          60.3226   95.4662   -4.8277 C.ar    1  UNL1        0.1799
     23 O          60.3749   96.8333   -4.2127 O.2     1  UNL1       -0.4472
     24 C          60.4033   96.6701   -2.7218 C.ar    1  UNL1        0.1827
     25 C          57.4975   89.7443    6.3072 C.3     1  UNL1        0.0312
     26 C          58.9949   89.8321    6.3067 C.3     1  UNL1        0.1491
     27 C          59.7842   89.1904    7.4091 C.2     1  UNL1        0.2440
     28 O          60.5988   90.0387    8.3401 O.2     1  UNL1       -0.2730
     29 N          59.7589   87.7005    7.5805 N.am    1  UNL1       -0.2826
     30 H          59.2242   87.1437    6.9694 H       1  UNL1        0.1549
     31 C          60.5481   87.0588    8.6829 C.ar    1  UNL1        0.0503
     32 C          61.6319   86.0751    8.3549 C.ar    1  UNL1        0.0147
     33 C          62.4212   85.4334    9.4573 C.ar    1  UNL1        0.0013
     34 C          62.1267   85.7755   10.8877 C.ar    1  UNL1        0.0001
     35 C          61.0429   86.7592   11.2158 C.ar    1  UNL1        0.0013
     36 C          60.2536   87.4008   10.1134 C.ar    1  UNL1        0.0147
     37 C          62.9159   85.1338   11.9902 C.2     1  UNL1        0.0012
     38 C          63.3171   83.6923   11.8845 C.2     1  UNL1        0.0151
     39 C          64.1063   83.0507   12.9869 C.2     1  UNL1        0.0729
     40 O          64.1718   81.5557   13.0903 O.co2   1  UNL1       -0.5446
     41 O          64.8302   83.9040   13.9858 O.co2   1  UNL1       -0.5446
@<TRIPOS>UNITY_ATOM_ATTR
40 1
charge -1
@<TRIPOS>BOND
     1    26    25    1
     2    26     1    1
     3     1     2   am
     4     2     3    2
     5     2     5    1
     6     5     6   ar
     7     6     7   ar
     8     7     8   ar
     9     8     9   ar
    10     9    10   ar
    11     9    11   ar
    12    11    12   ar
    13    12    20    1
    14    20    21   ar
    15    21    22   ar
    16    22    23   ar
    17    23    24   ar
    18    12    13   ar
    19    13    14    1
    20    14    15    1
    21    15    16    1
    22    16    17    1
    23    17    18    1
    24    18    19    1
    25    26    27    1
    26    27    28    2
    27    27    29   am
    28    29    31    1
    29    31    32   ar
    30    32    33   ar
    31    33    34   ar
    32    34    37    1
    33    37    38    2
    34    38    39    1
    35    39    40   ar
    36    39    41   ar
    37    34    35   ar
    38    35    36   ar
    39    10     5   ar
    40    24    20   ar
    41    19    14    1
    42    36    31   ar
    43    13     8   ar
    44     1     4    1
    45    29    30    1
