@<TRIPOS>MOLECULE
*****
 36 38 0 0 0
SMALL
GASTEIGER

@<TRIPOS>ATOM
      1 C          65.1697   91.5813   13.5532 C.2     1  UNL1        0.0707
      2 C          65.4390   92.5250   12.4188 C.2     1  UNL1        0.0283
      3 C          66.4740   93.6006   12.5675 C.3     1  UNL1        0.0470
      4 N          64.6733   92.3932   11.1357 N.pl3   1  UNL1       -0.3192
      5 C          63.6383   91.3177   10.9870 C.2     1  UNL1        0.0283
      6 C          62.8726   91.1860    9.7039 C.3     1  UNL1        0.0470
      7 C          63.3691   90.3740   12.1214 C.2     1  UNL1        0.0707
      8 C          64.1348   90.5058   13.4045 C.3     1  UNL1        0.0814
      9 H          64.8500   93.0126   10.3912 H       1  UNL1        0.1516
     10 C          63.8655   89.5620   14.5389 C.ar    1  UNL1       -0.0077
     11 C          63.1861   90.0571   15.7812 C.ar    1  UNL1       -0.0032
     12 C          62.9168   89.1134   16.9156 C.ar    1  UNL1        0.0060
     13 C          63.3269   87.6746   16.8077 C.ar    1  UNL1        0.0752
     14 C          64.0063   87.1795   15.5654 C.ar    1  UNL1        0.2898
     15 C          64.2756   88.1233   14.4310 C.ar    1  UNL1        0.0716
     16 N          64.4165   85.7407   15.4575 N.pl3   1  UNL1        0.0809
     17 O          65.5431   85.3482   14.5484 O.2     1  UNL1        0.0415
     18 O          63.6999   84.6945   16.2587 O.co2   1  UNL1       -0.5760
     19 C          65.9354   91.7131   14.8363 C.2     1  UNL1        0.3388
     20 O          65.3009   92.3741   16.0238 O.2     1  UNL1       -0.2452
     21 C          68.4406   92.0706   15.4246 C.3     1  UNL1        0.2559
     22 O          67.3357   91.1839   14.9318 O.3     1  UNL1       -0.4415
     23 C          62.3341   89.2985   11.9727 C.2     1  UNL1        0.3387
     24 O          60.9322   89.5354   12.4508 O.2     1  UNL1       -0.2452
     25 O          62.7010   87.9860   11.3460 O.3     1  UNL1       -0.4441
     26 C          61.6409   87.1354   10.7115 C.3     1  UNL1        0.2260
     27 C          61.6579   85.6479   10.9041 C.3     1  UNL1        0.1204
     28 N          62.8383   84.8454   10.4429 N.3     1  UNL1       -0.2646
     29 C          63.1677   84.7680    8.9815 C.3     1  UNL1        0.0900
     30 C          63.6892   84.1203   11.4429 C.3     1  UNL1        0.0993
     31 C          63.1308   82.9469   12.1920 C.ar    1  UNL1       -0.0061
     32 C          63.1629   81.5795   11.5760 C.ar    1  UNL1       -0.0029
     33 C          62.6045   80.4061   12.3252 C.ar    1  UNL1       -0.0003
     34 C          62.0140   80.6000   13.6904 C.ar    1  UNL1       -0.0000
     35 C          61.9819   81.9672   14.3064 C.ar    1  UNL1       -0.0003
     36 C          62.5403   83.1407   13.5572 C.ar    1  UNL1       -0.0029
@<TRIPOS>UNITY_ATOM_ATTR
16 1
charge 1
18 1
charge -1
@<TRIPOS>BOND
     1    21    22    1
     2    22    19    1
     3    19    20    2
     4    19     1    1
     5     1     2    2
     6     2     3    1
     7     2     4    1
     8     4     5    1
     9     5     6    1
    10     5     7    2
    11     7    23    1
    12    23    24    2
    13    23    25    1
    14    25    26    1
    15    26    27    1
    16    27    28    1
    17    28    29    1
    18    28    30    1
    19    30    31    1
    20    31    32   ar
    21    32    33   ar
    22    33    34   ar
    23    34    35   ar
    24    35    36   ar
    25     7     8    1
    26     8    10    1
    27    10    11   ar
    28    11    12   ar
    29    12    13   ar
    30    13    14   ar
    31    14    16    1
    32    16    17    2
    33    16    18    1
    34    14    15   ar
    35     8     1    1
    36    15    10   ar
    37    36    31   ar
    38     4     9    1
@<TRIPOS>MOLECULE
*****
 36 38 0 0 0
SMALL
GASTEIGER

@<TRIPOS>ATOM
      1 C          63.5635   85.0375   12.6031 C.2     1  UNL1        0.0707
      2 C          64.1284   85.1795   13.9853 C.2     1  UNL1        0.0283
      3 C          64.6469   83.9735   14.7112 C.3     1  UNL1        0.0470
      4 N          64.1750   86.5274   14.6417 N.pl3   1  UNL1       -0.3192
      5 C          63.6566   87.7334   13.9159 C.2     1  UNL1        0.0283
      6 C          63.7032   89.0813   14.5723 C.3     1  UNL1        0.0470
      7 C          63.0916   87.5914   12.5337 C.2     1  UNL1        0.0707
      8 C          63.0450   86.2434   11.8773 C.3     1  UNL1        0.0814
      9 H          64.5458   86.6206   15.5489 H       1  UNL1        0.1516
     10 C          62.4800   86.1014   10.4950 C.ar    1  UNL1       -0.0077
     11 C          63.1480   85.1984    9.5008 C.ar    1  UNL1       -0.0032
     12 C          62.5830   85.0564    8.1186 C.ar    1  UNL1        0.0060
     13 C          61.3500   85.8175    7.7304 C.ar    1  UNL1        0.0752
     14 C          60.6821   86.7206    8.7246 C.ar    1  UNL1        0.2898
     15 C          61.2471   86.8625   10.1069 C.ar    1  UNL1        0.0716
     16 N          59.4492   87.4816    8.3365 N.pl3   1  UNL1        0.0809
     17 O          58.2301   86.7451    7.8660 O.2     1  UNL1        0.0415
     18 O          59.4353   88.9793    8.4190 O.co2   1  UNL1       -0.5760
     19 C          63.5169   83.6895   11.9467 C.2     1  UNL1        0.3388
     20 O          64.7262   83.1598   11.2347 O.2     1  UNL1       -0.2452
     21 C          62.2093   81.6331   12.8475 C.3     1  UNL1        0.2559
     22 O          62.2610   82.8712   12.0023 O.3     1  UNL1       -0.4415
     23 C          62.5732   88.7974   11.8077 C.2     1  UNL1        0.3387
     24 O          61.1481   89.2281   11.9913 O.2     1  UNL1       -0.2452
     25 O          63.4798   89.5725   10.8983 O.3     1  UNL1       -0.4441
     26 C          63.2003   91.0189   10.6155 C.3     1  UNL1        0.2260
     27 C          64.3363   91.9723   10.3910 C.3     1  UNL1        0.1204
     28 N          65.0789   92.5433   11.5627 N.3     1  UNL1       -0.2646
     29 C          65.8260   93.8360   11.4193 C.3     1  UNL1        0.0900
     30 C          65.0743   91.8215   12.8775 C.3     1  UNL1        0.0993
     31 C          66.1747   92.0609   13.8683 C.ar    1  UNL1       -0.0061
     32 C          67.6045   91.8488   13.4672 C.ar    1  UNL1       -0.0029
     33 C          68.7049   92.0883   14.4580 C.ar    1  UNL1       -0.0003
     34 C          68.3756   92.5399   15.8500 C.ar    1  UNL1       -0.0000
     35 C          66.9459   92.7520   16.2512 C.ar    1  UNL1       -0.0003
     36 C          65.8454   92.5125   15.2603 C.ar    1  UNL1       -0.0029
@<TRIPOS>UNITY_ATOM_ATTR
16 1
charge 1
18 1
charge -1
@<TRIPOS>BOND
     1    21    22    1
     2    22    19    1
     3    19    20    2
     4    19     1    1
     5     1     2    2
     6     2     3    1
     7     2     4    1
     8     4     5    1
     9     5     6    1
    10     5     7    2
    11     7    23    1
    12    23    24    2
    13    23    25    1
    14    25    26    1
    15    26    27    1
    16    27    28    1
    17    28    29    1
    18    28    30    1
    19    30    31    1
    20    31    32   ar
    21    32    33   ar
    22    33    34   ar
    23    34    35   ar
    24    35    36   ar
    25     7     8    1
    26     8    10    1
    27    10    11   ar
    28    11    12   ar
    29    12    13   ar
    30    13    14   ar
    31    14    16    1
    32    16    17    2
    33    16    18    1
    34    14    15   ar
    35     8     1    1
    36    15    10   ar
    37    36    31   ar
    38     4     9    1
@<TRIPOS>MOLECULE
*****
 36 38 0 0 0
SMALL
GASTEIGER

@<TRIPOS>ATOM
      1 C          62.8224   85.7059   11.3004 C.2     1  UNL1        0.0707
      2 C          63.3805   84.3991   11.7807 C.2     1  UNL1        0.0283
      3 C          63.2289   83.1650   10.9416 C.3     1  UNL1        0.0470
      4 N          64.0902   84.3263   13.1002 N.pl3   1  UNL1       -0.3192
      5 C          64.2417   85.5603   13.9394 C.2     1  UNL1        0.0283
      6 C          64.9514   85.4876   15.2589 C.3     1  UNL1        0.0470
      7 C          63.6836   86.8671   13.4590 C.2     1  UNL1        0.0707
      8 C          62.9740   86.9399   12.1395 C.3     1  UNL1        0.0814
      9 H          64.4564   83.4686   13.4155 H       1  UNL1        0.1516
     10 C          62.4159   88.2468   11.6592 C.ar    1  UNL1       -0.0077
     11 C          63.2616   89.1618   10.8240 C.ar    1  UNL1       -0.0032
     12 C          62.7036   90.4686   10.3437 C.ar    1  UNL1        0.0060
     13 C          61.2998   90.8605   10.6985 C.ar    1  UNL1        0.0752
     14 C          60.4541   89.9455   11.5337 C.ar    1  UNL1        0.2898
     15 C          61.0122   88.6386   12.0141 C.ar    1  UNL1        0.0716
     16 N          59.0503   90.3374   11.8886 N.pl3   1  UNL1        0.0809
     17 O          58.5375   91.6996   11.5263 O.2     1  UNL1        0.0415
     18 O          58.1594   89.3669   12.6059 O.co2   1  UNL1       -0.5760
     19 C          62.1128   85.7787    9.9809 C.2     1  UNL1        0.3388
     20 O          62.8860   85.6302    8.7042 O.2     1  UNL1       -0.2452
     21 C          60.0276   86.8370    8.8486 C.3     1  UNL1        0.2559
     22 O          60.6298   86.0000    9.9381 O.3     1  UNL1       -0.4415
     23 C          63.8352   88.1012   14.2982 C.2     1  UNL1        0.3387
     24 O          63.2630   88.1407   15.6842 O.2     1  UNL1       -0.2452
     25 O          64.5590   89.2958   13.7513 O.3     1  UNL1       -0.4441
     26 C          64.2296   90.6689   14.2575 C.3     1  UNL1        0.2260
     27 C          65.3321   91.6172   14.6251 C.3     1  UNL1        0.1204
     28 N          65.7596   92.6813   13.6580 N.3     1  UNL1       -0.2646
     29 C          66.6376   93.8061   14.1206 C.3     1  UNL1        0.0900
     30 C          65.3092   92.6205   12.2286 C.3     1  UNL1        0.0993
     31 C          66.1797   93.1814   11.1435 C.ar    1  UNL1       -0.0061
     32 C          65.9412   94.5720   10.6342 C.ar    1  UNL1       -0.0029
     33 C          66.8117   95.1329    9.5491 C.ar    1  UNL1       -0.0003
     34 C          67.9208   94.3033    8.9732 C.ar    1  UNL1       -0.0000
     35 C          68.1594   92.9127    9.4825 C.ar    1  UNL1       -0.0003
     36 C          67.2888   92.3517   10.5676 C.ar    1  UNL1       -0.0029
@<TRIPOS>UNITY_ATOM_ATTR
16 1
charge 1
18 1
charge -1
@<TRIPOS>BOND
     1    21    22    1
     2    22    19    1
     3    19    20    2
     4    19     1    1
     5     1     2    2
     6     2     3    1
     7     2     4    1
     8     4     5    1
     9     5     6    1
    10     5     7    2
    11     7    23    1
    12    23    24    2
    13    23    25    1
    14    25    26    1
    15    26    27    1
    16    27    28    1
    17    28    29    1
    18    28    30    1
    19    30    31    1
    20    31    32   ar
    21    32    33   ar
    22    33    34   ar
    23    34    35   ar
    24    35    36   ar
    25     7     8    1
    26     8    10    1
    27    10    11   ar
    28    11    12   ar
    29    12    13   ar
    30    13    14   ar
    31    14    16    1
    32    16    17    2
    33    16    18    1
    34    14    15   ar
    35     8     1    1
    36    15    10   ar
    37    36    31   ar
    38     4     9    1
@<TRIPOS>MOLECULE
*****
 36 38 0 0 0
SMALL
GASTEIGER

@<TRIPOS>ATOM
      1 C          63.3170   85.2186   12.5068 C.2     1  UNL1        0.0707
      2 C          64.1942   85.2291   13.7234 C.2     1  UNL1        0.0283
      3 C          64.7283   83.9401   14.2742 C.3     1  UNL1        0.0470
      4 N          64.5375   86.5286   14.3894 N.pl3   1  UNL1       -0.3192
      5 C          64.0035   87.8176   13.8387 C.2     1  UNL1        0.0283
      6 C          64.3467   89.1171   14.5047 C.3     1  UNL1        0.0470
      7 C          63.1262   87.8071   12.6221 C.2     1  UNL1        0.0707
      8 C          62.7829   86.5076   11.9561 C.3     1  UNL1        0.0814
      9 H          65.1133   86.5355   15.1879 H       1  UNL1        0.1516
     10 C          61.9056   86.4972   10.7394 C.ar    1  UNL1       -0.0077
     11 C          60.5990   87.2338   10.7506 C.ar    1  UNL1       -0.0032
     12 C          59.7217   87.2234    9.5340 C.ar    1  UNL1        0.0060
     13 C          60.1510   86.4763    8.3062 C.ar    1  UNL1        0.0752
     14 C          61.4576   85.7396    8.2950 C.ar    1  UNL1        0.2898
     15 C          62.3349   85.7501    9.5117 C.ar    1  UNL1        0.0716
     16 N          61.8869   84.9925    7.0672 N.pl3   1  UNL1        0.0809
     17 O          60.8573   84.4561    6.1173 O.2     1  UNL1        0.0415
     18 O          63.3457   84.7819    6.7892 O.co2   1  UNL1       -0.5760
     19 C          62.9737   83.9191   11.8408 C.2     1  UNL1        0.3388
     20 O          63.6556   83.5280   10.5633 O.2     1  UNL1       -0.2452
     21 C          62.2916   81.5792   12.7404 C.3     1  UNL1        0.2559
     22 O          61.9486   83.0108   12.4524 O.3     1  UNL1       -0.4415
     23 C          62.5921   89.0961   12.0714 C.2     1  UNL1        0.3387
     24 O          61.4037   89.7501   12.7116 O.2     1  UNL1       -0.2452
     25 O          63.2465   89.7312   10.8804 O.3     1  UNL1       -0.4441
     26 C          63.2110   91.2211   10.7107 C.3     1  UNL1        0.2260
     27 C          64.4854   91.9818   10.4934 C.3     1  UNL1        0.1204
     28 N          65.1768   92.6338   11.6539 N.3     1  UNL1       -0.2646
     29 C          65.8752   93.9483   11.4687 C.3     1  UNL1        0.0900
     30 C          65.1698   91.9714   12.9997 C.3     1  UNL1        0.0993
     31 C          66.3191   92.1749   13.9417 C.ar    1  UNL1       -0.0061
     32 C          67.7212   91.8998   13.4848 C.ar    1  UNL1       -0.0029
     33 C          68.8705   92.1034   14.4269 C.ar    1  UNL1       -0.0003
     34 C          68.6179   92.5819   15.8259 C.ar    1  UNL1       -0.0000
     35 C          67.2160   92.8569   16.2828 C.ar    1  UNL1       -0.0003
     36 C          66.0665   92.6534   15.3407 C.ar    1  UNL1       -0.0029
@<TRIPOS>UNITY_ATOM_ATTR
16 1
charge 1
18 1
charge -1
@<TRIPOS>BOND
     1    21    22    1
     2    22    19    1
     3    19    20    2
     4    19     1    1
     5     1     2    2
     6     2     3    1
     7     2     4    1
     8     4     5    1
     9     5     6    1
    10     5     7    2
    11     7    23    1
    12    23    24    2
    13    23    25    1
    14    25    26    1
    15    26    27    1
    16    27    28    1
    17    28    29    1
    18    28    30    1
    19    30    31    1
    20    31    32   ar
    21    32    33   ar
    22    33    34   ar
    23    34    35   ar
    24    35    36   ar
    25     7     8    1
    26     8    10    1
    27    10    11   ar
    28    11    12   ar
    29    12    13   ar
    30    13    14   ar
    31    14    16    1
    32    16    17    2
    33    16    18    1
    34    14    15   ar
    35     8     1    1
    36    15    10   ar
    37    36    31   ar
    38     4     9    1
@<TRIPOS>MOLECULE
*****
 36 38 0 0 0
SMALL
GASTEIGER

@<TRIPOS>ATOM
      1 C          63.3030   85.1162   12.3601 C.2     1  UNL1        0.0707
      2 C          64.1626   85.1247   13.5893 C.2     1  UNL1        0.0283
      3 C          64.7088   83.8372   14.1315 C.3     1  UNL1        0.0470
      4 N          64.4759   86.4208   14.2764 N.pl3   1  UNL1       -0.3192
      5 C          63.9298   87.7083   13.7343 C.2     1  UNL1        0.0283
      6 C          64.2431   89.0043   14.4214 C.3     1  UNL1        0.0470
      7 C          63.0702   87.6997   12.5050 C.2     1  UNL1        0.0707
      8 C          62.7568   86.4037   11.8180 C.3     1  UNL1        0.0814
      9 H          65.0401   86.4263   15.0832 H       1  UNL1        0.1516
     10 C          61.8972   86.3952   10.5887 C.ar    1  UNL1       -0.0077
     11 C          60.5876   87.1266   10.5842 C.ar    1  UNL1       -0.0032
     12 C          59.7281   87.1182    9.3550 C.ar    1  UNL1        0.0060
     13 C          60.1780   86.3783    8.1302 C.ar    1  UNL1        0.0752
     14 C          61.4876   85.6468    8.1346 C.ar    1  UNL1        0.2898
     15 C          62.3472   85.6553    9.3639 C.ar    1  UNL1        0.0716
     16 N          61.9376   84.9070    6.9099 N.pl3   1  UNL1        0.0809
     17 O          60.9241   84.2983    5.9867 O.2     1  UNL1        0.0415
     18 O          63.4011   84.7758    6.6084 O.co2   1  UNL1       -0.5760
     19 C          62.9896   83.8202   11.6730 C.2     1  UNL1        0.3388
     20 O          63.7400   83.4269   10.4352 O.2     1  UNL1       -0.2452
     21 C          62.2825   81.5387   12.6953 C.3     1  UNL1        0.2559
     22 O          61.9259   82.9173   12.2238 O.3     1  UNL1       -0.4415
     23 C          62.5240   88.9873   11.9628 C.2     1  UNL1        0.3387
     24 O          61.3500   89.6429   12.6275 O.2     1  UNL1       -0.2452
     25 O          63.1518   89.6192   10.7560 O.3     1  UNL1       -0.4441
     26 C          62.9121   91.0697   10.4585 C.3     1  UNL1        0.2260
     27 C          64.0745   91.9946   10.2500 C.3     1  UNL1        0.1204
     28 N          65.0838   92.1888   11.3426 N.3     1  UNL1       -0.2646
     29 C          64.7023   91.9321   12.7704 C.3     1  UNL1        0.0900
     30 C          66.4746   92.6396   11.0074 C.3     1  UNL1        0.0993
     31 C          66.7013   94.0042   10.4274 C.ar    1  UNL1       -0.0061
     32 C          67.2508   94.1472    9.0389 C.ar    1  UNL1       -0.0029
     33 C          67.4775   95.5118    8.4590 C.ar    1  UNL1       -0.0003
     34 C          67.1547   96.7334    9.2674 C.ar    1  UNL1       -0.0000
     35 C          66.6052   96.5905   10.6557 C.ar    1  UNL1       -0.0003
     36 C          66.3785   95.2258   11.2358 C.ar    1  UNL1       -0.0029
@<TRIPOS>UNITY_ATOM_ATTR
16 1
charge 1
18 1
charge -1
@<TRIPOS>BOND
     1    21    22    1
     2    22    19    1
     3    19    20    2
     4    19     1    1
     5     1     2    2
     6     2     3    1
     7     2     4    1
     8     4     5    1
     9     5     6    1
    10     5     7    2
    11     7    23    1
    12    23    24    2
    13    23    25    1
    14    25    26    1
    15    26    27    1
    16    27    28    1
    17    28    29    1
    18    28    30    1
    19    30    31    1
    20    31    32   ar
    21    32    33   ar
    22    33    34   ar
    23    34    35   ar
    24    35    36   ar
    25     7     8    1
    26     8    10    1
    27    10    11   ar
    28    11    12   ar
    29    12    13   ar
    30    13    14   ar
    31    14    16    1
    32    16    17    2
    33    16    18    1
    34    14    15   ar
    35     8     1    1
    36    15    10   ar
    37    36    31   ar
    38     4     9    1
@<TRIPOS>MOLECULE
*****
 36 38 0 0 0
SMALL
GASTEIGER

@<TRIPOS>ATOM
      1 C          60.8318   87.2026    8.6621 C.2     1  UNL1        0.0707
      2 C          60.1708   88.5208    8.3876 C.2     1  UNL1        0.0283
      3 C          59.2546   88.6695    7.2092 C.3     1  UNL1        0.0470
      4 N          60.4260   89.6904    9.2915 N.pl3   1  UNL1       -0.3192
      5 C          61.3421   89.5417   10.4698 C.2     1  UNL1        0.0283
      6 C          61.5973   90.7113   11.3737 C.3     1  UNL1        0.0470
      7 C          62.0031   88.2235   10.7443 C.2     1  UNL1        0.0707
      8 C          61.7480   87.0540    9.8404 C.3     1  UNL1        0.0814
      9 H          59.9921   90.5556    9.1113 H       1  UNL1        0.1516
     10 C          62.4090   85.7357   10.1149 C.ar    1  UNL1       -0.0077
     11 C          63.4006   85.1762    9.1383 C.ar    1  UNL1       -0.0032
     12 C          64.0617   83.8580    9.4128 C.ar    1  UNL1        0.0060
     13 C          63.7311   83.0993   10.6639 C.ar    1  UNL1        0.0752
     14 C          62.7395   83.6588   11.6405 C.ar    1  UNL1        0.2898
     15 C          62.0785   84.9770   11.3660 C.ar    1  UNL1        0.0716
     16 N          62.4090   82.9001   12.8915 N.pl3   1  UNL1        0.0809
     17 O          62.0737   81.4400   12.8167 O.2     1  UNL1        0.0415
     18 O          62.4137   83.6016   14.2173 O.co2   1  UNL1       -0.5760
     19 C          60.5766   86.0330    7.7582 C.2     1  UNL1        0.3388
     20 O          59.1732   85.5579    7.5245 O.2     1  UNL1       -0.2452
     21 C          61.4663   84.3554    5.9851 C.3     1  UNL1        0.2559
     22 O          61.7249   85.3385    7.0880 O.3     1  UNL1       -0.4415
     23 C          62.9193   88.0749   11.9227 C.2     1  UNL1        0.3387
     24 O          62.8684   86.8315   12.7601 O.2     1  UNL1       -0.2452
     25 O          63.8865   89.1696   12.2635 O.3     1  UNL1       -0.4441
     26 C          64.0523   89.6071   13.6886 C.3     1  UNL1        0.2260
     27 C          64.3942   91.0340   14.0002 C.3     1  UNL1        0.1204
     28 N          65.3958   91.7664   13.1574 N.3     1  UNL1       -0.2646
     29 C          66.7835   92.0015   13.6761 C.3     1  UNL1        0.0900
     30 C          65.0098   92.2638   11.7959 C.3     1  UNL1        0.0993
     31 C          65.9930   93.0462   10.9767 C.ar    1  UNL1       -0.0061
     32 C          67.0732   92.3330   10.2187 C.ar    1  UNL1       -0.0029
     33 C          68.0564   93.1154    9.3995 C.ar    1  UNL1       -0.0003
     34 C          67.9594   94.6110    9.3382 C.ar    1  UNL1       -0.0000
     35 C          66.8792   95.3242   10.0961 C.ar    1  UNL1       -0.0003
     36 C          65.8959   94.5418   10.9154 C.ar    1  UNL1       -0.0029
@<TRIPOS>UNITY_ATOM_ATTR
16 1
charge 1
18 1
charge -1
@<TRIPOS>BOND
     1    21    22    1
     2    22    19    1
     3    19    20    2
     4    19     1    1
     5     1     2    2
     6     2     3    1
     7     2     4    1
     8     4     5    1
     9     5     6    1
    10     5     7    2
    11     7    23    1
    12    23    24    2
    13    23    25    1
    14    25    26    1
    15    26    27    1
    16    27    28    1
    17    28    29    1
    18    28    30    1
    19    30    31    1
    20    31    32   ar
    21    32    33   ar
    22    33    34   ar
    23    34    35   ar
    24    35    36   ar
    25     7     8    1
    26     8    10    1
    27    10    11   ar
    28    11    12   ar
    29    12    13   ar
    30    13    14   ar
    31    14    16    1
    32    16    17    2
    33    16    18    1
    34    14    15   ar
    35     8     1    1
    36    15    10   ar
    37    36    31   ar
    38     4     9    1
@<TRIPOS>MOLECULE
*****
 36 38 0 0 0
SMALL
GASTEIGER

@<TRIPOS>ATOM
      1 C          62.3512   85.9870   10.5691 C.2     1  UNL1        0.0707
      2 C          62.9950   84.8067    9.9039 C.2     1  UNL1        0.0283
      3 C          63.9995   83.9804   10.6511 C.3     1  UNL1        0.0470
      4 N          62.6343   84.4527    8.4916 N.pl3   1  UNL1       -0.3192
      5 C          61.6299   85.2790    7.7445 C.2     1  UNL1        0.0283
      6 C          61.2692   84.9250    6.3322 C.3     1  UNL1        0.0470
      7 C          60.9861   86.4593    8.4097 C.2     1  UNL1        0.0707
      8 C          61.3468   86.8132    9.8220 C.3     1  UNL1        0.0814
      9 H          63.0569   83.6781    8.0551 H       1  UNL1        0.1516
     10 C          60.7029   87.9936   10.4871 C.ar    1  UNL1       -0.0077
     11 C          61.0047   89.3821   10.0066 C.ar    1  UNL1       -0.0032
     12 C          60.3609   90.5624   10.6717 C.ar    1  UNL1        0.0060
     13 C          59.4153   90.3542   11.8174 C.ar    1  UNL1        0.0752
     14 C          59.1135   88.9657   12.2979 C.ar    1  UNL1        0.2898
     15 C          59.7573   87.7853   11.6327 C.ar    1  UNL1        0.0716
     16 N          58.1679   88.7574   13.4435 N.pl3   1  UNL1        0.0809
     17 O          58.6860   88.7455   14.8511 O.2     1  UNL1        0.0415
     18 O          56.7041   88.5610   13.1814 O.co2   1  UNL1       -0.5760
     19 C          62.7119   86.3409   11.9814 C.2     1  UNL1        0.3388
     20 O          63.2930   87.6885   12.2918 O.2     1  UNL1       -0.2452
     21 C          63.5948   85.0470   14.0541 C.3     1  UNL1        0.2559
     22 O          62.4915   85.3474   13.0833 O.3     1  UNL1       -0.4415
     23 C          59.9816   87.2856    7.6625 C.2     1  UNL1        0.3387
     24 O          58.6145   86.7342    7.3848 O.2     1  UNL1       -0.2452
     25 O          60.3441   88.6634    7.1931 O.3     1  UNL1       -0.4441
     26 C          59.3396   89.4899    6.4464 C.3     1  UNL1        0.2260
     27 C          59.8004   90.4998    5.4376 C.3     1  UNL1        0.1204
     28 N          58.8420   91.5282    4.9141 N.3     1  UNL1       -0.2646
     29 C          57.3636   91.2943    5.0122 C.3     1  UNL1        0.0900
     30 C          59.3621   92.7905    4.2927 C.3     1  UNL1        0.0993
     31 C          60.0990   92.7354    2.9874 C.ar    1  UNL1       -0.0061
     32 C          61.5648   92.4170    2.9665 C.ar    1  UNL1       -0.0029
     33 C          62.3017   92.3619    1.6612 C.ar    1  UNL1       -0.0003
     34 C          61.5731   92.6252    0.3768 C.ar    1  UNL1       -0.0000
     35 C          60.1074   92.9435    0.3977 C.ar    1  UNL1       -0.0003
     36 C          59.3704   92.9986    1.7030 C.ar    1  UNL1       -0.0029
@<TRIPOS>UNITY_ATOM_ATTR
16 1
charge 1
18 1
charge -1
@<TRIPOS>BOND
     1    21    22    1
     2    22    19    1
     3    19    20    2
     4    19     1    1
     5     1     2    2
     6     2     3    1
     7     2     4    1
     8     4     5    1
     9     5     6    1
    10     5     7    2
    11     7    23    1
    12    23    24    2
    13    23    25    1
    14    25    26    1
    15    26    27    1
    16    27    28    1
    17    28    29    1
    18    28    30    1
    19    30    31    1
    20    31    32   ar
    21    32    33   ar
    22    33    34   ar
    23    34    35   ar
    24    35    36   ar
    25     7     8    1
    26     8    10    1
    27    10    11   ar
    28    11    12   ar
    29    12    13   ar
    30    13    14   ar
    31    14    16    1
    32    16    17    2
    33    16    18    1
    34    14    15   ar
    35     8     1    1
    36    15    10   ar
    37    36    31   ar
    38     4     9    1
