@<TRIPOS>MOLECULE
*****
 45 49 0 0 0
SMALL
GASTEIGER

@<TRIPOS>ATOM
      1 C          61.0686   88.6984    9.4058 C.3     1  UNL1        0.0964
      2 C          60.2753   89.8827    8.9386 C.3     1  UNL1        0.0780
      3 N          59.3261   89.7421    7.7858 N.3     1  UNL1       -0.2970
      4 C          59.1701   88.4171    7.1001 C.3     1  UNL1        0.0689
      5 C          59.9633   87.2328    7.5673 C.3     1  UNL1        0.0220
      6 C          60.9125   87.3735    8.7201 C.3     1  UNL1        0.0337
      7 H          59.6263   90.4083    7.0742 H       1  UNL1        0.1233
      8 C          61.7058   86.1892    9.1873 C.ar    1  UNL1       -0.0217
      9 C          61.5273   85.6704   10.5833 C.ar    1  UNL1       -0.0012
     10 C          62.3205   84.4861   11.0505 C.ar    1  UNL1        0.0366
     11 C          63.2922   83.8206   10.1216 C.ar    1  UNL1        0.1387
     12 C          63.4707   84.3394    8.7256 C.ar    1  UNL1        0.0366
     13 C          62.6775   85.5237    8.2584 C.ar    1  UNL1       -0.0012
     14 O          64.0855   82.6363   10.5888 O.3     1  UNL1       -0.4714
     15 C          63.4685   81.6444   11.5297 C.3     1  UNL1        0.2525
     16 C          63.7531   81.7280   13.0001 C.3     1  UNL1        0.2525
     17 O          64.6084   82.8374   13.5366 O.3     1  UNL1       -0.4697
     18 C          64.0451   83.8012   14.5384 C.ar    1  UNL1        0.1596
     19 C          64.8613   84.9758   14.9902 C.ar    1  UNL1        0.0921
     20 CL         66.2407   85.1866   14.4400 Cl      1  UNL1       -0.0791
     21 C          64.2980   85.9397   15.9920 C.ar    1  UNL1        0.0103
     22 C          62.9186   85.7289   16.5422 C.ar    1  UNL1       -0.0200
     23 C          62.3553   86.6927   17.5440 C.3     1  UNL1        0.0311
     24 C          62.1023   84.5542   16.0904 C.ar    1  UNL1        0.0103
     25 C          62.6656   83.5904   15.0886 C.ar    1  UNL1        0.0921
     26 CL         61.8495   82.4157   14.6368 Cl      1  UNL1       -0.0791
     27 N          61.5286   89.3733   11.8721 N.am    1  UNL1       -0.2770
     28 C          62.0179   88.8391   10.5587 C.2     1  UNL1        0.2270
     29 O          63.4564   88.4455   10.3980 O.2     1  UNL1       -0.2748
     30 C          60.0901   89.7669   12.0328 C.3     1  UNL1        0.0758
     31 C          58.9837   90.7582   11.8257 C.3     1  UNL1        0.0215
     32 C          58.7051   89.4571   12.5181 C.3     1  UNL1        0.0215
     33 C          62.4779   89.5140   13.0250 C.3     1  UNL1        0.1209
     34 C          64.9582   92.2770   11.6234 C.ar    1  UNL1       -0.0223
     35 C          65.9464   92.3676   12.7483 C.ar    1  UNL1       -0.0034
     36 C          65.7785   91.5070   13.9653 C.ar    1  UNL1        0.0108
     37 C          64.6223   90.5558   14.0575 C.ar    1  UNL1        0.0553
     38 CL         64.4544   89.6952   15.2745 Cl      1  UNL1       -0.0825
     39 C          63.6341   90.4652   12.9328 C.ar    1  UNL1        0.0079
     40 C          63.8020   91.3258   11.7157 C.ar    1  UNL1       -0.0060
     41 C          65.1261   93.1375   10.4064 C.3     1  UNL1        0.0289
     42 C          66.0486   94.3197   10.4452 C.3     1  UNL1        0.0367
     43 C          67.1695   94.4291    9.4543 C.3     1  UNL1        0.1426
     44 C          68.7802   92.4256    9.0789 C.3     1  UNL1        0.1741
     45 O          68.4775   93.7459    9.7230 O.3     1  UNL1       -0.3511
@<TRIPOS>BOND
     1    44    45    1
     2    45    43    1
     3    43    42    1
     4    42    41    1
     5    41    34    1
     6    34    35   ar
     7    35    36   ar
     8    36    37   ar
     9    37    38    1
    10    37    39   ar
    11    39    33    1
    12    33    27    1
    13    27    28   am
    14    28    29    2
    15     1    28    1
    16     1     2    1
    17     2     3    1
    18     3     4    1
    19     4     5    1
    20     5     6    1
    21     6     8    1
    22     8     9   ar
    23     9    10   ar
    24    10    11   ar
    25    11    14    1
    26    14    15    1
    27    15    16    1
    28    16    17    1
    29    17    18    1
    30    18    19   ar
    31    19    20    1
    32    19    21   ar
    33    21    22   ar
    34    22    23    1
    35    22    24   ar
    36    24    25   ar
    37    25    26    1
    38    11    12   ar
    39    12    13   ar
    40    27    30    1
    41    30    31    1
    42    31    32    1
    43    39    40   ar
    44    40    34   ar
    45     6     1    1
    46    13     8   ar
    47    32    30    1
    48    25    18   ar
    49     3     7    1
@<TRIPOS>MOLECULE
*****
 45 49 0 0 0
SMALL
GASTEIGER

@<TRIPOS>ATOM
      1 C          60.6523   86.8507    9.2709 C.3     1  UNL1        0.0964
      2 C          59.8111   86.0134    8.3537 C.3     1  UNL1        0.0780
      3 N          58.8340   86.6698    7.4241 N.3     1  UNL1       -0.2970
      4 C          58.6981   88.1636    7.4117 C.3     1  UNL1        0.0689
      5 C          59.5393   89.0009    8.3289 C.3     1  UNL1        0.0220
      6 C          60.5164   88.3444    9.2585 C.3     1  UNL1        0.0337
      7 H          57.9137   86.2923    7.6497 H       1  UNL1        0.1233
      8 C          61.3576   89.1817   10.1758 C.ar    1  UNL1       -0.0217
      9 C          60.8738   89.4941   11.5608 C.ar    1  UNL1       -0.0012
     10 C          61.7150   90.3314   12.4780 C.ar    1  UNL1        0.0366
     11 C          63.0399   90.8564   12.0102 C.ar    1  UNL1        0.1387
     12 C          63.5237   90.5440   10.6252 C.ar    1  UNL1        0.0366
     13 C          62.6825   89.7067    9.7080 C.ar    1  UNL1       -0.0012
     14 O          63.8811   91.6937   12.9274 O.3     1  UNL1       -0.4714
     15 C          65.3495   91.8504   12.6643 C.3     1  UNL1        0.2525
     16 C          66.0048   93.1879   12.8419 C.3     1  UNL1        0.2525
     17 O          67.1814   93.5655   11.9915 O.3     1  UNL1       -0.4697
     18 C          66.9790   94.3878   10.7535 C.ar    1  UNL1        0.1596
     19 C          66.3906   95.7638   10.8549 C.ar    1  UNL1        0.0921
     20 CL         66.0046   96.3174   12.1945 Cl      1  UNL1       -0.0791
     21 C          66.1882   96.5861    9.6169 C.ar    1  UNL1        0.0103
     22 C          66.5741   96.0324    8.2773 C.ar    1  UNL1       -0.0200
     23 C          66.3717   96.8547    7.0392 C.3     1  UNL1        0.0311
     24 C          67.1626   94.6563    8.1758 C.ar    1  UNL1        0.0103
     25 C          67.3650   93.8340    9.4139 C.ar    1  UNL1        0.0921
     26 CL         67.9535   92.4580    9.3124 Cl      1  UNL1       -0.0791
     27 N          62.6793   85.2717    9.6558 N.am    1  UNL1       -0.2770
     28 C          61.6295   86.1942   10.2006 C.2     1  UNL1        0.2270
     29 O          61.5567   86.4601   11.6751 O.2     1  UNL1       -0.2748
     30 C          62.7521   85.0058    8.1814 C.3     1  UNL1        0.0758
     31 C          63.5375   84.9773    6.9038 C.3     1  UNL1        0.0215
     32 C          62.0929   84.5736    6.9053 C.3     1  UNL1        0.0215
     33 C          63.6565   84.6152   10.5855 C.3     1  UNL1        0.1209
     34 C          62.4164   83.6614   14.2328 C.ar    1  UNL1       -0.0223
     35 C          62.1654   82.1913   14.0714 C.ar    1  UNL1       -0.0034
     36 C          62.4114   81.5293   12.7481 C.ar    1  UNL1        0.0108
     37 C          62.9084   82.3373   11.5861 C.ar    1  UNL1        0.0553
     38 CL         63.1544   81.6753   10.2628 Cl      1  UNL1       -0.0825
     39 C          63.1595   83.8073   11.7475 C.ar    1  UNL1        0.0079
     40 C          62.9135   84.4693   13.0708 C.ar    1  UNL1       -0.0060
     41 C          62.1705   84.3233   15.5561 C.3     1  UNL1        0.0289
     42 C          63.3027   84.9814   16.2875 C.3     1  UNL1        0.0367
     43 C          63.1024   86.3222   16.9295 C.3     1  UNL1        0.1426
     44 C          63.0856   88.9151   16.7659 C.3     1  UNL1        0.1741
     45 O          63.2875   87.5743   16.1244 O.3     1  UNL1       -0.3511
@<TRIPOS>BOND
     1    44    45    1
     2    45    43    1
     3    43    42    1
     4    42    41    1
     5    41    34    1
     6    34    35   ar
     7    35    36   ar
     8    36    37   ar
     9    37    38    1
    10    37    39   ar
    11    39    33    1
    12    33    27    1
    13    27    28   am
    14    28    29    2
    15     1    28    1
    16     1     2    1
    17     2     3    1
    18     3     4    1
    19     4     5    1
    20     5     6    1
    21     6     8    1
    22     8     9   ar
    23     9    10   ar
    24    10    11   ar
    25    11    14    1
    26    14    15    1
    27    15    16    1
    28    16    17    1
    29    17    18    1
    30    18    19   ar
    31    19    20    1
    32    19    21   ar
    33    21    22   ar
    34    22    23    1
    35    22    24   ar
    36    24    25   ar
    37    25    26    1
    38    11    12   ar
    39    12    13   ar
    40    27    30    1
    41    30    31    1
    42    31    32    1
    43    39    40   ar
    44    40    34   ar
    45     6     1    1
    46    13     8   ar
    47    32    30    1
    48    25    18   ar
    49     3     7    1
@<TRIPOS>MOLECULE
*****
 45 49 0 0 0
SMALL
GASTEIGER

@<TRIPOS>ATOM
      1 C          65.2994   92.1588   13.4542 C.3     1  UNL1        0.0964
      2 C          66.1242   93.3228   12.9906 C.3     1  UNL1        0.0780
      3 N          67.2574   93.8232   13.8365 N.3     1  UNL1       -0.2970
      4 C          67.5658   93.1597   15.1459 C.3     1  UNL1        0.0689
      5 C          66.7410   91.9957   15.6094 C.3     1  UNL1        0.0220
      6 C          65.6078   91.4953   14.7636 C.3     1  UNL1        0.0337
      7 H          67.0612   94.8029   14.0418 H       1  UNL1        0.1233
      8 C          64.7831   90.3313   15.2272 C.ar    1  UNL1       -0.0217
      9 C          63.8070   90.5047   16.3528 C.ar    1  UNL1       -0.0012
     10 C          62.9822   89.3407   16.8163 C.ar    1  UNL1        0.0366
     11 C          63.1335   88.0033   16.1543 C.ar    1  UNL1        0.1387
     12 C          64.1096   87.8299   15.0286 C.ar    1  UNL1        0.0366
     13 C          64.9344   88.9939   14.5651 C.ar    1  UNL1       -0.0012
     14 O          62.3088   86.8393   16.6178 O.3     1  UNL1       -0.4714
     15 C          62.9146   85.4685   16.6805 C.3     1  UNL1        0.2525
     16 C          62.2079   84.3066   16.0477 C.3     1  UNL1        0.2525
     17 O          62.9798   83.0804   15.6593 O.3     1  UNL1       -0.4697
     18 C          63.2450   82.7882   14.2121 C.ar    1  UNL1        0.1596
     19 C          62.3877   81.8011   13.4770 C.ar    1  UNL1        0.0921
     20 CL         61.2652   81.1062   14.1890 Cl      1  UNL1       -0.0791
     21 C          62.6529   81.5089   12.0298 C.ar    1  UNL1        0.0103
     22 C          63.7754   82.2038   11.3178 C.ar    1  UNL1       -0.0200
     23 C          64.0405   81.9116    9.8706 C.3     1  UNL1        0.0311
     24 C          64.6328   83.1910   12.0530 C.ar    1  UNL1        0.0103
     25 C          64.3676   83.4832   13.5001 C.ar    1  UNL1        0.0921
     26 CL         65.2249   84.4704   14.2353 Cl      1  UNL1       -0.0791
     27 N          64.2458   91.7566   11.1137 N.am    1  UNL1       -0.2770
     28 C          64.1662   91.6584   12.6083 C.2     1  UNL1        0.2270
     29 O          62.9535   91.0598   13.2571 O.2     1  UNL1       -0.2748
     30 C          65.4585   92.3551   10.4648 C.3     1  UNL1        0.0758
     31 C          66.8828   92.2324   10.0106 C.3     1  UNL1        0.0215
     32 C          66.1347   93.5146    9.7953 C.3     1  UNL1        0.0215
     33 C          63.1126   91.2561   10.2678 C.3     1  UNL1        0.1209
     34 C          62.1378   87.5089   11.1386 C.ar    1  UNL1       -0.0223
     35 C          60.7201   87.6839   11.5963 C.ar    1  UNL1       -0.0034
     36 C          60.0999   89.0496   11.6112 C.ar    1  UNL1        0.0108
     37 C          60.8974   90.2403   11.1683 C.ar    1  UNL1        0.0553
     38 CL         60.2772   91.6060   11.1832 Cl      1  UNL1       -0.0825
     39 C          62.3151   90.0654   10.7106 C.ar    1  UNL1        0.0079
     40 C          62.9353   88.6996   10.6958 C.ar    1  UNL1       -0.0060
     41 C          62.7580   86.1432   11.1238 C.3     1  UNL1        0.0289
     42 C          62.5163   85.2223    9.9647 C.3     1  UNL1        0.0367
     43 C          62.6328   85.7373    8.5606 C.3     1  UNL1        0.1426
     44 C          60.1360   86.3564    8.1960 C.3     1  UNL1        0.1741
     45 O          61.4220   85.7851    7.6765 O.3     1  UNL1       -0.3511
@<TRIPOS>BOND
     1    44    45    1
     2    45    43    1
     3    43    42    1
     4    42    41    1
     5    41    34    1
     6    34    35   ar
     7    35    36   ar
     8    36    37   ar
     9    37    38    1
    10    37    39   ar
    11    39    33    1
    12    33    27    1
    13    27    28   am
    14    28    29    2
    15     1    28    1
    16     1     2    1
    17     2     3    1
    18     3     4    1
    19     4     5    1
    20     5     6    1
    21     6     8    1
    22     8     9   ar
    23     9    10   ar
    24    10    11   ar
    25    11    14    1
    26    14    15    1
    27    15    16    1
    28    16    17    1
    29    17    18    1
    30    18    19   ar
    31    19    20    1
    32    19    21   ar
    33    21    22   ar
    34    22    23    1
    35    22    24   ar
    36    24    25   ar
    37    25    26    1
    38    11    12   ar
    39    12    13   ar
    40    27    30    1
    41    30    31    1
    42    31    32    1
    43    39    40   ar
    44    40    34   ar
    45     6     1    1
    46    13     8   ar
    47    32    30    1
    48    25    18   ar
    49     3     7    1
@<TRIPOS>MOLECULE
*****
 45 49 0 0 0
SMALL
GASTEIGER

@<TRIPOS>ATOM
      1 C          61.2222   88.6811   10.5584 C.3     1  UNL1        0.0964
      2 C          60.4979   89.9814   10.3731 C.3     1  UNL1        0.0780
      3 N          59.7179   90.2330    9.1168 N.3     1  UNL1       -0.2970
      4 C          59.6623   89.1843    8.0459 C.3     1  UNL1        0.0689
      5 C          60.3867   87.8839    8.2312 C.3     1  UNL1        0.0220
      6 C          61.1667   87.6323    9.4875 C.3     1  UNL1        0.0337
      7 H          60.1118   91.0707    8.6884 H       1  UNL1        0.1233
      8 C          61.8911   86.3320    9.6728 C.ar    1  UNL1       -0.0217
      9 C          61.7853   85.5934   10.9740 C.ar    1  UNL1       -0.0012
     10 C          62.5097   84.2930   11.1594 C.ar    1  UNL1        0.0366
     11 C          63.3399   83.7313   10.0435 C.ar    1  UNL1        0.1387
     12 C          63.4457   84.4699    8.7423 C.ar    1  UNL1        0.0366
     13 C          62.7213   85.7703    8.5570 C.ar    1  UNL1       -0.0012
     14 O          64.0643   82.4310   10.2288 O.3     1  UNL1       -0.4714
     15 C          63.4706   81.3583   11.0930 C.3     1  UNL1        0.2525
     16 C          63.7481   81.3435   12.5671 C.3     1  UNL1        0.2525
     17 O          64.5987   82.4158   13.1809 O.3     1  UNL1       -0.4697
     18 C          64.0126   83.3455   14.2018 C.ar    1  UNL1        0.1596
     19 C          64.7943   84.5385   14.6662 C.ar    1  UNL1        0.0921
     20 CL         66.1621   84.8018   14.1096 Cl      1  UNL1       -0.0791
     21 C          64.2082   85.4681   15.6871 C.ar    1  UNL1        0.0103
     22 C          62.8404   85.2048   16.2436 C.ar    1  UNL1       -0.0200
     23 C          62.2543   86.1344   17.2645 C.3     1  UNL1        0.0311
     24 C          62.0587   84.0117   15.7792 C.ar    1  UNL1        0.0103
     25 C          62.6448   83.0821   14.7583 C.ar    1  UNL1        0.0921
     26 CL         61.8631   81.8891   14.2940 Cl      1  UNL1       -0.0791
     27 N          63.1395   89.3346   12.1855 N.am    1  UNL1       -0.2770
     28 C          62.0022   88.4295   11.8148 C.2     1  UNL1        0.2270
     29 O          61.6449   87.2728   12.7004 O.2     1  UNL1       -0.2748
     30 C          63.4967   90.4914   11.2998 C.3     1  UNL1        0.0758
     31 C          64.3186   91.7173   11.0325 C.3     1  UNL1        0.0215
     32 C          63.2937   91.2688   10.0333 C.3     1  UNL1        0.0215
     33 C          63.9194   89.0831   13.4419 C.3     1  UNL1        0.1209
     34 C          65.9264   92.3237   14.5468 C.ar    1  UNL1       -0.0223
     35 C          65.3694   92.5470   15.9216 C.ar    1  UNL1       -0.0034
     36 C          64.3291   91.6157   16.4697 C.ar    1  UNL1        0.0108
     37 C          63.8458   90.4610   15.6432 C.ar    1  UNL1        0.0553
     38 CL         62.8056   89.5297   16.1913 Cl      1  UNL1       -0.0825
     39 C          64.4028   90.2377   14.2684 C.ar    1  UNL1        0.0079
     40 C          65.4431   91.1691   13.7202 C.ar    1  UNL1       -0.0060
     41 C          66.9666   93.2550   13.9986 C.3     1  UNL1        0.0289
     42 C          66.5510   94.5079   13.2862 C.3     1  UNL1        0.0367
     43 C          66.2166   94.4637   11.8246 C.3     1  UNL1        0.1426
     44 C          67.3449   93.6220    9.6409 C.3     1  UNL1        0.1741
     45 O          67.3085   94.5712   10.8018 O.3     1  UNL1       -0.3511
@<TRIPOS>BOND
     1    44    45    1
     2    45    43    1
     3    43    42    1
     4    42    41    1
     5    41    34    1
     6    34    35   ar
     7    35    36   ar
     8    36    37   ar
     9    37    38    1
    10    37    39   ar
    11    39    33    1
    12    33    27    1
    13    27    28   am
    14    28    29    2
    15     1    28    1
    16     1     2    1
    17     2     3    1
    18     3     4    1
    19     4     5    1
    20     5     6    1
    21     6     8    1
    22     8     9   ar
    23     9    10   ar
    24    10    11   ar
    25    11    14    1
    26    14    15    1
    27    15    16    1
    28    16    17    1
    29    17    18    1
    30    18    19   ar
    31    19    20    1
    32    19    21   ar
    33    21    22   ar
    34    22    23    1
    35    22    24   ar
    36    24    25   ar
    37    25    26    1
    38    11    12   ar
    39    12    13   ar
    40    27    30    1
    41    30    31    1
    42    31    32    1
    43    39    40   ar
    44    40    34   ar
    45     6     1    1
    46    13     8   ar
    47    32    30    1
    48    25    18   ar
    49     3     7    1
@<TRIPOS>MOLECULE
*****
 45 49 0 0 0
SMALL
GASTEIGER

@<TRIPOS>ATOM
      1 C          63.8072   90.9030   13.6109 C.3     1  UNL1        0.0964
      2 C          64.2558   92.1925   12.9898 C.3     1  UNL1        0.0780
      3 N          65.5931   92.7712   13.3460 N.3     1  UNL1       -0.2970
      4 C          66.4816   92.0603   14.3233 C.3     1  UNL1        0.0689
      5 C          66.0329   90.7708   14.9444 C.3     1  UNL1        0.0220
      6 C          64.6957   90.1921   14.5882 C.3     1  UNL1        0.0337
      7 H          65.4193   93.7008   13.7282 H       1  UNL1        0.1233
      8 C          64.2470   88.9026   15.2094 C.ar    1  UNL1       -0.0217
      9 C          64.5955   87.5962   14.5600 C.ar    1  UNL1       -0.0012
     10 C          64.1468   86.3066   15.1811 C.ar    1  UNL1        0.0366
     11 C          63.3496   86.3235   16.4516 C.ar    1  UNL1        0.1387
     12 C          63.0011   87.6300   17.1010 C.ar    1  UNL1        0.0366
     13 C          63.4498   88.9195   16.4798 C.ar    1  UNL1       -0.0012
     14 O          62.9010   85.0340   17.0727 O.3     1  UNL1       -0.4714
     15 C          62.3503   83.9376   16.2099 C.3     1  UNL1        0.2525
     16 C          63.1266   83.4589   15.0190 C.3     1  UNL1        0.2525
     17 O          62.5476   83.5956   13.6419 O.3     1  UNL1       -0.4697
     18 C          62.6833   82.4729   12.6565 C.ar    1  UNL1        0.1596
     19 C          62.1803   81.1036   13.0056 C.ar    1  UNL1        0.0921
     20 CL         61.5417   80.8570   14.3403 Cl      1  UNL1       -0.0791
     21 C          62.3160   79.9809   12.0201 C.ar    1  UNL1        0.0103
     22 C          62.9546   80.2275   10.6855 C.ar    1  UNL1       -0.0200
     23 C          63.0902   79.1049    9.7000 C.3     1  UNL1        0.0311
     24 C          63.4576   81.5969   10.3363 C.ar    1  UNL1        0.0103
     25 C          63.3219   82.7196   11.3218 C.ar    1  UNL1        0.0921
     26 CL         63.8249   84.0889   10.9726 Cl      1  UNL1       -0.0791
     27 N          62.0087   90.3246   11.8274 N.am    1  UNL1       -0.2770
     28 C          62.4699   90.3243   13.2547 C.2     1  UNL1        0.2270
     29 O          61.5938   89.7454   14.3259 O.2     1  UNL1       -0.2748
     30 C          62.8847   90.9035   10.7562 C.3     1  UNL1        0.0758
     31 C          64.1723   91.5507   10.3400 C.3     1  UNL1        0.0215
     32 C          63.1145   91.2590    9.3173 C.3     1  UNL1        0.0215
     33 C          60.6714   89.7459   11.4712 C.3     1  UNL1        0.1209
     34 C          59.6961   88.4435    7.8514 C.ar    1  UNL1       -0.0223
     35 C          60.2664   87.0565    7.8860 C.ar    1  UNL1       -0.0034
     36 C          60.9716   86.5660    9.1157 C.ar    1  UNL1        0.0108
     37 C          61.1066   87.4625   10.3107 C.ar    1  UNL1        0.0553
     38 CL         61.8118   86.9720   11.5404 Cl      1  UNL1       -0.0825
     39 C          60.5364   88.8494   10.2761 C.ar    1  UNL1        0.0079
     40 C          59.8311   89.3400    9.0464 C.ar    1  UNL1       -0.0060
     41 C          58.9909   88.9340    6.6217 C.3     1  UNL1        0.0289
     42 C          59.4275   90.2102    5.9655 C.3     1  UNL1        0.0367
     43 C          58.4093   91.1231    5.3490 C.3     1  UNL1        0.1426
     44 C          59.8236   92.5393    3.6926 C.3     1  UNL1        0.1741
     45 O          58.8279   92.4594    4.8116 O.3     1  UNL1       -0.3511
@<TRIPOS>BOND
     1    44    45    1
     2    45    43    1
     3    43    42    1
     4    42    41    1
     5    41    34    1
     6    34    35   ar
     7    35    36   ar
     8    36    37   ar
     9    37    38    1
    10    37    39   ar
    11    39    33    1
    12    33    27    1
    13    27    28   am
    14    28    29    2
    15     1    28    1
    16     1     2    1
    17     2     3    1
    18     3     4    1
    19     4     5    1
    20     5     6    1
    21     6     8    1
    22     8     9   ar
    23     9    10   ar
    24    10    11   ar
    25    11    14    1
    26    14    15    1
    27    15    16    1
    28    16    17    1
    29    17    18    1
    30    18    19   ar
    31    19    20    1
    32    19    21   ar
    33    21    22   ar
    34    22    23    1
    35    22    24   ar
    36    24    25   ar
    37    25    26    1
    38    11    12   ar
    39    12    13   ar
    40    27    30    1
    41    30    31    1
    42    31    32    1
    43    39    40   ar
    44    40    34   ar
    45     6     1    1
    46    13     8   ar
    47    32    30    1
    48    25    18   ar
    49     3     7    1
@<TRIPOS>MOLECULE
*****
 45 49 0 0 0
SMALL
GASTEIGER

@<TRIPOS>ATOM
      1 C          60.2419   87.5744    9.5448 C.3     1  UNL1        0.0964
      2 C          59.3997   86.8995    8.5030 C.3     1  UNL1        0.0780
      3 N          59.0659   87.6166    7.2286 N.3     1  UNL1       -0.2970
      4 C          59.5741   89.0085    6.9959 C.3     1  UNL1        0.0689
      5 C          60.4163   89.6833    8.0377 C.3     1  UNL1        0.0220
      6 C          60.7502   88.9663    9.3121 C.3     1  UNL1        0.0337
      7 H          58.0483   87.6617    7.1740 H       1  UNL1        0.1233
      8 C          61.5923   89.6412   10.3539 C.ar    1  UNL1       -0.0217
      9 C          62.9381   90.1934    9.9882 C.ar    1  UNL1       -0.0012
     10 C          63.7803   90.8683   11.0300 C.ar    1  UNL1        0.0366
     11 C          63.2766   90.9909   12.4375 C.ar    1  UNL1        0.1387
     12 C          61.9308   90.4387   12.8033 C.ar    1  UNL1        0.0366
     13 C          61.0886   89.7639   11.7615 C.ar    1  UNL1       -0.0012
     14 O          64.1187   91.6658   13.4793 O.3     1  UNL1       -0.4714
     15 C          65.5679   91.9425   13.2085 C.3     1  UNL1        0.2525
     16 C          66.0335   93.3507   12.9848 C.3     1  UNL1        0.2525
     17 O          67.1914   93.6215   12.0704 O.3     1  UNL1       -0.4697
     18 C          66.9891   94.4298   10.8232 C.ar    1  UNL1        0.1596
     19 C          67.3725   93.8600    9.4897 C.ar    1  UNL1        0.0921
     20 CL         67.9583   92.4819    9.4034 Cl      1  UNL1       -0.0791
     21 C          67.1702   94.6684    8.2424 C.ar    1  UNL1        0.0103
     22 C          66.5844   96.0465    8.3287 C.ar    1  UNL1       -0.0200
     23 C          66.3820   96.8549    7.0814 C.3     1  UNL1        0.0311
     24 C          66.2009   96.6164    9.6622 C.ar    1  UNL1        0.0103
     25 C          66.4033   95.8081   10.9095 C.ar    1  UNL1        0.0921
     26 CL         66.0199   96.3779   12.2430 Cl      1  UNL1       -0.0791
     27 N          61.6482   85.8087   10.8311 N.am    1  UNL1       -0.2770
     28 C          60.5758   86.8573   10.8194 C.2     1  UNL1        0.2270
     29 O          59.8371   87.1888   12.0821 O.2     1  UNL1       -0.2748
     30 C          62.3869   85.4772    9.5684 C.3     1  UNL1        0.0758
     31 C          62.9261   84.4589    8.6081 C.3     1  UNL1        0.0215
     32 C          63.1271   85.9213    8.3417 C.3     1  UNL1        0.0215
     33 C          61.9821   85.0916   12.1057 C.3     1  UNL1        0.1209
     34 C          64.2687   87.4500   14.3327 C.ar    1  UNL1       -0.0223
     35 C          65.3986   86.5201   14.6625 C.ar    1  UNL1       -0.0034
     36 C          65.3896   85.1141   14.1399 C.ar    1  UNL1        0.0108
     37 C          64.2508   84.6379   13.2877 C.ar    1  UNL1        0.0553
     38 CL         64.2419   83.2319   12.7651 Cl      1  UNL1       -0.0825
     39 C          63.1209   85.5677   12.9579 C.ar    1  UNL1        0.0079
     40 C          63.1298   86.9738   13.4805 C.ar    1  UNL1       -0.0060
     41 C          64.2776   88.8560   14.8553 C.3     1  UNL1        0.0289
     42 C          63.1631   89.3354   15.7373 C.3     1  UNL1        0.0367
     43 C          63.1631   88.9944   17.1981 C.3     1  UNL1        0.1426
     44 C          62.0996   86.6250   17.1303 C.3     1  UNL1        0.1741
     45 O          63.1602   87.5589   17.6332 O.3     1  UNL1       -0.3511
@<TRIPOS>BOND
     1    44    45    1
     2    45    43    1
     3    43    42    1
     4    42    41    1
     5    41    34    1
     6    34    35   ar
     7    35    36   ar
     8    36    37   ar
     9    37    38    1
    10    37    39   ar
    11    39    33    1
    12    33    27    1
    13    27    28   am
    14    28    29    2
    15     1    28    1
    16     1     2    1
    17     2     3    1
    18     3     4    1
    19     4     5    1
    20     5     6    1
    21     6     8    1
    22     8     9   ar
    23     9    10   ar
    24    10    11   ar
    25    11    14    1
    26    14    15    1
    27    15    16    1
    28    16    17    1
    29    17    18    1
    30    18    19   ar
    31    19    20    1
    32    19    21   ar
    33    21    22   ar
    34    22    23    1
    35    22    24   ar
    36    24    25   ar
    37    25    26    1
    38    11    12   ar
    39    12    13   ar
    40    27    30    1
    41    30    31    1
    42    31    32    1
    43    39    40   ar
    44    40    34   ar
    45     6     1    1
    46    13     8   ar
    47    32    30    1
    48    25    18   ar
    49     3     7    1
@<TRIPOS>MOLECULE
*****
 45 49 0 0 0
SMALL
GASTEIGER

@<TRIPOS>ATOM
      1 C          61.2222   88.6047   10.4952 C.3     1  UNL1        0.0964
      2 C          60.4827   89.8948   10.2987 C.3     1  UNL1        0.0780
      3 N          59.7260   90.1394    9.0268 N.3     1  UNL1       -0.2970
      4 C          59.7090   89.0939    7.9515 C.3     1  UNL1        0.0689
      5 C          60.4485   87.8037    8.1479 C.3     1  UNL1        0.0220
      6 C          61.2051   87.5591    9.4198 C.3     1  UNL1        0.0337
      7 H          60.1165   90.9844    8.6098 H       1  UNL1        0.1233
      8 C          61.9447   86.2690    9.6162 C.ar    1  UNL1       -0.0217
      9 C          61.7673   85.4885   10.8848 C.ar    1  UNL1       -0.0012
     10 C          62.5069   84.1984   11.0813 C.ar    1  UNL1        0.0366
     11 C          63.4237   83.6887   10.0091 C.ar    1  UNL1        0.1387
     12 C          63.6011   84.4691    8.7405 C.ar    1  UNL1        0.0366
     13 C          62.8615   85.7593    8.5441 C.ar    1  UNL1       -0.0012
     14 O          64.1633   82.3985   10.2056 O.3     1  UNL1       -0.4714
     15 C          63.5453   81.2952   11.0122 C.3     1  UNL1        0.2525
     16 C          63.6006   81.3399   12.5105 C.3     1  UNL1        0.2525
     17 O          64.5121   82.3124   13.1987 O.3     1  UNL1       -0.4697
     18 C          63.9575   83.2778   14.2039 C.ar    1  UNL1        0.1596
     19 C          62.6008   83.0438   14.7992 C.ar    1  UNL1        0.0921
     20 CL         61.7987   81.8444   14.3893 Cl      1  UNL1       -0.0791
     21 C          62.0461   84.0092   15.8044 C.ar    1  UNL1        0.0103
     22 C          62.8482   85.2086   16.2143 C.ar    1  UNL1       -0.0200
     23 C          62.2936   86.1739   17.2195 C.3     1  UNL1        0.0311
     24 C          64.2050   85.4426   15.6189 C.ar    1  UNL1        0.0103
     25 C          64.7597   84.4772   14.6137 C.ar    1  UNL1        0.0921
     26 CL         66.1164   84.7112   14.0184 Cl      1  UNL1       -0.0791
     27 N          63.0897   89.2846   12.1686 N.am    1  UNL1       -0.2770
     28 C          61.9788   88.3601   11.7671 C.2     1  UNL1        0.2270
     29 O          61.6246   87.1910   12.6375 O.2     1  UNL1       -0.2748
     30 C          63.4439   90.4538   11.2981 C.3     1  UNL1        0.0758
     31 C          64.2842   91.6674   11.0317 C.3     1  UNL1        0.0215
     32 C          63.2173   91.2650   10.0570 C.3     1  UNL1        0.0215
     33 C          63.8463   89.0400   13.4405 C.3     1  UNL1        0.1209
     34 C          65.8875   92.2690   14.5164 C.ar    1  UNL1       -0.0223
     35 C          65.3236   92.5182   15.8839 C.ar    1  UNL1       -0.0034
     36 C          64.2673   91.6080   16.4369 C.ar    1  UNL1        0.0108
     37 C          63.7749   90.4486   15.6224 C.ar    1  UNL1        0.0553
     38 CL         62.7186   89.5385   16.1753 Cl      1  UNL1       -0.0825
     39 C          64.3387   90.1994   14.2550 C.ar    1  UNL1        0.0079
     40 C          65.3951   91.1096   13.7020 C.ar    1  UNL1       -0.0060
     41 C          66.9438   93.1791   13.9635 C.3     1  UNL1        0.0289
     42 C          68.3537   92.6890   13.8155 C.3     1  UNL1        0.0367
     43 C          69.1046   92.1914   15.0149 C.3     1  UNL1        0.1426
     44 C          69.2181   94.4685   16.2608 C.3     1  UNL1        0.1741
     45 O          69.0797   92.9753   16.2936 O.3     1  UNL1       -0.3511
@<TRIPOS>BOND
     1    44    45    1
     2    45    43    1
     3    43    42    1
     4    42    41    1
     5    41    34    1
     6    34    35   ar
     7    35    36   ar
     8    36    37   ar
     9    37    38    1
    10    37    39   ar
    11    39    33    1
    12    33    27    1
    13    27    28   am
    14    28    29    2
    15     1    28    1
    16     1     2    1
    17     2     3    1
    18     3     4    1
    19     4     5    1
    20     5     6    1
    21     6     8    1
    22     8     9   ar
    23     9    10   ar
    24    10    11   ar
    25    11    14    1
    26    14    15    1
    27    15    16    1
    28    16    17    1
    29    17    18    1
    30    18    19   ar
    31    19    20    1
    32    19    21   ar
    33    21    22   ar
    34    22    23    1
    35    22    24   ar
    36    24    25   ar
    37    25    26    1
    38    11    12   ar
    39    12    13   ar
    40    27    30    1
    41    30    31    1
    42    31    32    1
    43    39    40   ar
    44    40    34   ar
    45     6     1    1
    46    13     8   ar
    47    32    30    1
    48    25    18   ar
    49     3     7    1
@<TRIPOS>MOLECULE
*****
 45 49 0 0 0
SMALL
GASTEIGER

@<TRIPOS>ATOM
      1 C          61.0824   88.5511    9.3342 C.3     1  UNL1        0.0964
      2 C          60.2705   89.7217    8.8645 C.3     1  UNL1        0.0780
      3 N          59.2787   89.5487    7.7526 N.3     1  UNL1       -0.2970
      4 C          59.0987   88.2051    7.1105 C.3     1  UNL1        0.0689
      5 C          59.9106   87.0345    7.5802 C.3     1  UNL1        0.0220
      6 C          60.9024   87.2075    8.6920 C.3     1  UNL1        0.0337
      7 H          59.5510   90.1950    7.0120 H       1  UNL1        0.1233
      8 C          61.7143   86.0369    9.1617 C.ar    1  UNL1       -0.0217
      9 C          61.5514   85.5248   10.5621 C.ar    1  UNL1       -0.0012
     10 C          62.3632   84.3542   11.0318 C.ar    1  UNL1        0.0366
     11 C          63.3380   83.6958   10.1011 C.ar    1  UNL1        0.1387
     12 C          63.5009   84.2079    8.7007 C.ar    1  UNL1        0.0366
     13 C          62.6890   85.3785    8.2310 C.ar    1  UNL1       -0.0012
     14 O          64.1499   82.5252   10.5708 O.3     1  UNL1       -0.4714
     15 C          63.5675   81.5554   11.5558 C.3     1  UNL1        0.2525
     16 C          63.8780   81.6929   13.0169 C.3     1  UNL1        0.2525
     17 O          64.6707   82.8680   13.5078 O.3     1  UNL1       -0.4697
     18 C          64.0751   83.8063   14.5153 C.ar    1  UNL1        0.1596
     19 C          62.6888   83.5667   15.0355 C.ar    1  UNL1        0.0921
     20 CL         61.8980   82.3889   14.5483 Cl      1  UNL1       -0.0791
     21 C          62.0932   84.5050   16.0429 C.ar    1  UNL1        0.0103
     22 C          62.8840   85.6828   16.5301 C.ar    1  UNL1       -0.0200
     23 C          62.2884   86.6211   17.5376 C.3     1  UNL1        0.0311
     24 C          64.2704   85.9224   16.0099 C.ar    1  UNL1        0.0103
     25 C          64.8659   84.9841   15.0025 C.ar    1  UNL1        0.0921
     26 CL         66.2523   85.2237   14.4823 Cl      1  UNL1       -0.0791
     27 N          61.6643   89.4063   11.7175 N.am    1  UNL1       -0.2770
     28 C          62.0743   88.7241   10.4461 C.2     1  UNL1        0.2270
     29 O          63.4762   88.2149   10.2866 O.2     1  UNL1       -0.2748
     30 C          60.2624   89.9154   11.8771 C.3     1  UNL1        0.0758
     31 C          59.2466   91.0035   11.6920 C.3     1  UNL1        0.0215
     32 C          58.8501   89.7093   12.3385 C.3     1  UNL1        0.0215
     33 C          62.6561   89.5793   12.8294 C.3     1  UNL1        0.1209
     34 C          65.4570   92.1610   13.9432 C.ar    1  UNL1       -0.0223
     35 C          65.6468   92.9381   12.6743 C.ar    1  UNL1       -0.0034
     36 C          64.8398   92.5957   11.4572 C.ar    1  UNL1        0.0108
     37 C          63.8429   91.4760   11.5089 C.ar    1  UNL1        0.0553
     38 CL         63.0359   91.1336   10.2918 Cl      1  UNL1       -0.0825
     39 C          63.6530   90.6989   12.7777 C.ar    1  UNL1        0.0079
     40 C          64.4601   91.0414   13.9949 C.ar    1  UNL1       -0.0060
     41 C          66.2640   92.5035   15.1603 C.3     1  UNL1        0.0289
     42 C          67.4939   93.3523   15.0303 C.3     1  UNL1        0.0367
     43 C          68.8515   92.7357   15.1943 C.3     1  UNL1        0.1426
     44 C          68.9982   91.6138   12.8556 C.3     1  UNL1        0.1741
     45 O          69.6523   92.3528   13.9851 O.3     1  UNL1       -0.3511
@<TRIPOS>BOND
     1    44    45    1
     2    45    43    1
     3    43    42    1
     4    42    41    1
     5    41    34    1
     6    34    35   ar
     7    35    36   ar
     8    36    37   ar
     9    37    38    1
    10    37    39   ar
    11    39    33    1
    12    33    27    1
    13    27    28   am
    14    28    29    2
    15     1    28    1
    16     1     2    1
    17     2     3    1
    18     3     4    1
    19     4     5    1
    20     5     6    1
    21     6     8    1
    22     8     9   ar
    23     9    10   ar
    24    10    11   ar
    25    11    14    1
    26    14    15    1
    27    15    16    1
    28    16    17    1
    29    17    18    1
    30    18    19   ar
    31    19    20    1
    32    19    21   ar
    33    21    22   ar
    34    22    23    1
    35    22    24   ar
    36    24    25   ar
    37    25    26    1
    38    11    12   ar
    39    12    13   ar
    40    27    30    1
    41    30    31    1
    42    31    32    1
    43    39    40   ar
    44    40    34   ar
    45     6     1    1
    46    13     8   ar
    47    32    30    1
    48    25    18   ar
    49     3     7    1
@<TRIPOS>MOLECULE
*****
 45 49 0 0 0
SMALL
GASTEIGER

@<TRIPOS>ATOM
      1 C          63.4506   87.0542   13.0274 C.3     1  UNL1        0.0964
      2 C          64.2403   86.5601   14.2030 C.3     1  UNL1        0.0780
      3 N          64.2494   85.0984   14.5395 N.3     1  UNL1       -0.2970
      4 C          63.4687   84.1308   13.7003 C.3     1  UNL1        0.0689
      5 C          62.6789   84.6249   12.5247 C.3     1  UNL1        0.0220
      6 C          62.6699   86.0866   12.1882 C.3     1  UNL1        0.0337
      7 H          63.8961   85.0134   15.4925 H       1  UNL1        0.1233
      8 C          61.8801   86.5807   11.0126 C.ar    1  UNL1       -0.0217
      9 C          60.7065   87.4901   11.2263 C.ar    1  UNL1       -0.0012
     10 C          59.9167   87.9842   10.0507 C.ar    1  UNL1        0.0366
     11 C          60.3005   87.5690    8.6614 C.ar    1  UNL1        0.1387
     12 C          61.4742   86.6596    8.4477 C.ar    1  UNL1        0.0366
     13 C          62.2639   86.1655    9.6233 C.ar    1  UNL1       -0.0012
     14 O          59.5108   88.0631    7.4857 O.3     1  UNL1       -0.4714
     15 C          59.5389   89.5179    7.1213 C.3     1  UNL1        0.2525
     16 C          59.7902   89.9306    5.7013 C.3     1  UNL1        0.2525
     17 O          60.9244   90.8581    5.3794 O.3     1  UNL1       -0.4697
     18 C          60.9276   91.6183    4.0863 C.ar    1  UNL1        0.1596
     19 C          59.7192   92.4070    3.6770 C.ar    1  UNL1        0.0921
     20 CL         58.5075   92.4354    4.5608 Cl      1  UNL1       -0.0791
     21 C          59.7224   93.1673    2.3840 C.ar    1  UNL1        0.0103
     22 C          60.9340   93.1389    1.5002 C.ar    1  UNL1       -0.0200
     23 C          60.9372   93.8992    0.2072 C.3     1  UNL1        0.0311
     24 C          62.1426   92.3502    1.9095 C.ar    1  UNL1        0.0103
     25 C          62.1394   91.5899    3.2026 C.ar    1  UNL1        0.0921
     26 CL         63.3478   90.8012    3.6119 Cl      1  UNL1       -0.0791
     27 N          63.3772   89.5376   13.7874 N.am    1  UNL1       -0.2770
     28 C          63.4415   88.5160   12.6909 C.2     1  UNL1        0.2270
     29 O          63.4969   88.9561   11.2580 O.2     1  UNL1       -0.2748
     30 C          63.3218   89.0974   15.2203 C.3     1  UNL1        0.0758
     31 C          63.0899   89.4133   16.6681 C.3     1  UNL1        0.0215
     32 C          63.4579   88.0193   16.2542 C.3     1  UNL1        0.0215
     33 C          63.3681   90.9994   13.4509 C.3     1  UNL1        0.1209
     34 C          66.2344   92.6887   11.2874 C.ar    1  UNL1       -0.0223
     35 C          67.2059   93.0810   12.3609 C.ar    1  UNL1       -0.0034
     36 C          66.8981   92.7795   13.7976 C.ar    1  UNL1        0.0108
     37 C          65.6188   92.0856   14.1610 C.ar    1  UNL1        0.0553
     38 CL         65.3110   91.7841   15.5977 Cl      1  UNL1       -0.0825
     39 C          64.6474   91.6933   13.0876 C.ar    1  UNL1        0.0079
     40 C          64.9551   91.9948   11.6507 C.ar    1  UNL1       -0.0060
     41 C          66.5422   92.9902    9.8506 C.3     1  UNL1        0.0289
     42 C          67.7395   93.8224    9.4987 C.3     1  UNL1        0.0367
     43 C          67.5612   95.2470    9.0641 C.3     1  UNL1        0.1426
     44 C          66.4169   96.6539   10.9245 C.3     1  UNL1        0.1741
     45 O          66.3869   96.0398    9.5563 O.3     1  UNL1       -0.3511
@<TRIPOS>BOND
     1    44    45    1
     2    45    43    1
     3    43    42    1
     4    42    41    1
     5    41    34    1
     6    34    35   ar
     7    35    36   ar
     8    36    37   ar
     9    37    38    1
    10    37    39   ar
    11    39    33    1
    12    33    27    1
    13    27    28   am
    14    28    29    2
    15     1    28    1
    16     1     2    1
    17     2     3    1
    18     3     4    1
    19     4     5    1
    20     5     6    1
    21     6     8    1
    22     8     9   ar
    23     9    10   ar
    24    10    11   ar
    25    11    14    1
    26    14    15    1
    27    15    16    1
    28    16    17    1
    29    17    18    1
    30    18    19   ar
    31    19    20    1
    32    19    21   ar
    33    21    22   ar
    34    22    23    1
    35    22    24   ar
    36    24    25   ar
    37    25    26    1
    38    11    12   ar
    39    12    13   ar
    40    27    30    1
    41    30    31    1
    42    31    32    1
    43    39    40   ar
    44    40    34   ar
    45     6     1    1
    46    13     8   ar
    47    32    30    1
    48    25    18   ar
    49     3     7    1
