@<TRIPOS>MOLECULE
*****
 59 62 0 0 0
SMALL
GASTEIGER

@<TRIPOS>ATOM
      1 C          63.2877   82.7286   10.7326 C.3     1  UNL1        0.1953
      2 O          63.0260   83.7482    9.6640 O.3     1  UNL1       -0.4497
      3 C          62.8224   85.1410    9.1458 C.2     1  UNL1        0.3188
      4 O          62.6010   84.9222    7.6784 O.2     1  UNL1       -0.2500
      5 C          62.7175   86.6313    9.2805 C.3     1  UNL1        0.1263
      6 C          62.4934   86.7085    7.9515 C.3     1  UNL1        0.0142
      7 C          62.7319   87.9238   10.0416 C.3     1  UNL1        0.1306
      8 C          62.8628   88.7625   11.2784 C.3     1  UNL1        0.0575
      9 C          62.6593   90.1553   10.7601 C.3     1  UNL1        0.0051
     10 C          63.0843   88.9813   12.7457 C.3     1  UNL1        0.1445
     11 C          63.3525   88.5369   14.1531 C.3     1  UNL1        0.1137
     12 C          63.2113   90.0277   14.0666 C.3     1  UNL1        0.0318
     13 O          63.5175   89.1818   15.4972 O.3     1  UNL1       -0.3844
     14 C          63.6143   87.5173   15.2217 C.3     1  UNL1        0.0366
     15 C          63.8178   86.1245   15.7399 C.3     1  UNL1        0.0601
     16 C          64.0393   86.3433   17.2072 C.3     1  UNL1        0.0078
     17 C          63.9227   84.6342   15.6051 C.2     1  UNL1        0.1523
     18 O          64.1909   84.1899   17.0125 O.2     1  UNL1       -0.2960
     19 C          63.9083   83.3418   14.8440 C.3     1  UNL1        0.0869
     20 C          64.1701   82.3221   15.9126 C.3     1  UNL1        0.0104
     21 C          63.7774   82.5030   13.6072 C.3     1  UNL1        0.1451
     22 O          63.9809   81.1102   14.1255 O.3     1  UNL1       -0.3815
     23 C          63.5559   82.2842   12.1399 C.3     1  UNL1        0.1497
     24 C          63.7841   80.9878   12.8590 C.3     1  UNL1        0.0356
     25 O          63.5012   81.1181   11.1980 O.3     1  UNL1       -0.3808
     26 H          63.4211   90.1430   15.4087 H       1  UNL1        0.2103
     27 H          64.1350   81.1407   15.0827 H       1  UNL1        0.2105
     28 H          63.6519   80.2967   11.6914 H       1  UNL1        0.2105
     29 C          62.6742   80.2080   10.5902 C.3     1  UNL1        0.0039
     30 C          63.2733   81.4361    9.9714 C.3     1  UNL1        0.0462
     31 O          62.4701   88.9434    8.9730 O.3     1  UNL1       -0.3323
     32 C          61.1578   88.9483    8.2466 C.3     1  UNL1        0.2375
     33 C          60.8625   90.0194    7.2388 C.3     1  UNL1        0.0910
     34 C          59.5502   90.0245    6.5123 C.3     1  UNL1        0.1246
     35 C          58.4596   90.4512    5.5751 C.3     1  UNL1        0.0324
     36 C          58.5331   88.9583    6.7936 C.3     1  UNL1        0.1623
     37 O          57.2209   88.9634    6.0671 O.3     1  UNL1       -0.3796
     38 C          58.8285   87.8873    7.8014 C.3     1  UNL1        0.1468
     39 C          57.8114   86.8212    8.0826 C.3     1  UNL1        0.0348
     40 O          60.1407   87.8823    8.5278 O.3     1  UNL1       -0.3304
     41 H          57.1921   89.7168    5.4568 H       1  UNL1        0.2105
     42 O          60.1885   91.2387    5.9055 O.3     1  UNL1       -0.3532
     43 C          59.5126   91.9551    4.7742 C.3     1  UNL1        0.1740
     44 O          62.9794   90.4715   12.8805 O.3     1  UNL1       -0.3278
     45 C          63.8247   91.1950   13.8865 C.3     1  UNL1        0.2785
     46 O          63.4170   91.2195   15.3298 O.3     1  UNL1       -0.3302
     47 C          64.2624   91.9430   16.3357 C.3     1  UNL1        0.1198
     48 C          63.8546   91.9675   17.7791 C.3     1  UNL1        0.0322
     49 C          65.5154   92.6419   15.8984 C.3     1  UNL1        0.0534
     50 C          65.9232   92.6173   14.4551 C.3     1  UNL1        0.1245
     51 C          65.0779   91.8939   13.4491 C.3     1  UNL1        0.2426
     52 O          65.7286   92.0406   12.1056 O.2     1  UNL1       -0.4466
     53 C          66.9761   92.8547   12.2814 C.2     1  UNL1        0.2833
     54 N          67.9351   93.2440   11.1956 N.2     1  UNL1       -0.2263
     55 N          67.0964   93.2111   13.7333 N.pl3   1  UNL1       -0.2603
     56 C          68.1967   94.0195   14.3546 C.3     1  UNL1        0.1166
     57 C          67.6825   92.8122    9.7814 C.3     1  UNL1        0.1078
     58 C          68.1095   91.4483    9.3261 C.3     1  UNL1        0.0264
     59 C          67.0029   93.7443    8.8226 C.3     1  UNL1        0.0264
@<TRIPOS>BOND
     1    29    30    1
     2     1    30    1
     3     1     2    1
     4     2     3    1
     5     3     4    2
     6     3     5    1
     7     5     6    1
     8     5     7    1
     9     7    31    1
    10    32    31    1
    11    32    33    1
    12    33    34    1
    13    34    35    1
    14    34    42    1
    15    42    43    1
    16    34    36    1
    17    36    37    1
    18    36    38    1
    19    38    39    1
    20    38    40    1
    21     7     8    1
    22     8     9    1
    23     8    10    1
    24    10    44    1
    25    45    44    1
    26    45    46    1
    27    46    47    1
    28    47    48    1
    29    47    49    1
    30    50    49    1
    31    50    51    1
    32    51    52    1
    33    52    53    1
    34    53    54    2
    35    54    57    1
    36    57    58    1
    37    57    59    1
    38    53    55    1
    39    55    56    1
    40    10    11    1
    41    11    12    1
    42    11    13    1
    43    11    14    1
    44    14    15    1
    45    15    16    1
    46    15    17    1
    47    17    18    2
    48    17    19    1
    49    19    20    1
    50    19    21    1
    51    21    22    1
    52    21    23    1
    53    23    24    1
    54    23    25    1
    55    23     1    1
    56    40    32    1
    57    51    45    1
    58    55    50    1
    59    37    41    1
    60    13    26    1
    61    22    27    1
    62    25    28    1
@<TRIPOS>MOLECULE
*****
 59 62 0 0 0
SMALL
GASTEIGER

@<TRIPOS>ATOM
      1 C          62.5548   83.1191   11.9899 C.3     1  UNL1        0.1953
      2 O          62.4617   83.8046   10.6589 O.3     1  UNL1       -0.4497
      3 C          62.4411   84.9999    9.7530 C.2     1  UNL1        0.3188
      4 O          62.2690   84.3865    8.3949 O.2     1  UNL1       -0.2500
      5 C          62.4971   86.4682    9.4513 C.3     1  UNL1        0.1263
      6 C          62.3487   86.1772    8.1414 C.3     1  UNL1        0.0142
      7 C          62.6185   87.9187    9.8137 C.3     1  UNL1        0.1306
      8 C          62.7815   89.0641   10.7686 C.3     1  UNL1        0.0575
      9 C          62.7608   90.2594    9.8625 C.3     1  UNL1        0.0051
     10 C          62.9535   89.6775   12.1265 C.3     1  UNL1        0.1445
     11 C          63.1007   89.6375   13.6188 C.3     1  UNL1        0.1137
     12 C          63.1316   91.0455   13.1026 C.3     1  UNL1        0.0318
     13 O          63.2705   90.6262   14.7339 O.3     1  UNL1       -0.3844
     14 C          63.1938   88.9519   14.9497 C.3     1  UNL1        0.0366
     15 C          63.2144   87.7566   15.8556 C.3     1  UNL1        0.0601
     16 C          63.3865   88.3700   17.2137 C.3     1  UNL1        0.0078
     17 C          63.1584   86.2883   16.1573 C.2     1  UNL1        0.1523
     18 O          63.3056   86.2483   17.6496 O.2     1  UNL1       -0.2960
     19 C          63.0370   84.8378   15.7949 C.3     1  UNL1        0.0869
     20 C          63.1301   84.1522   17.1258 C.3     1  UNL1        0.0104
     21 C          62.8741   83.6924   14.8400 C.3     1  UNL1        0.1451
     22 O          62.8947   82.4971   15.7461 O.3     1  UNL1       -0.3815
     23 C          62.7020   83.0790   13.4821 C.3     1  UNL1        0.1497
     24 C          62.7480   82.0315   14.5547 C.3     1  UNL1        0.0356
     25 O          62.5635   81.7003   12.9079 O.3     1  UNL1       -0.3808
     26 H          63.2867   91.5250   14.3694 H       1  UNL1        0.2103
     27 H          63.0039   82.7895   16.6645 H       1  UNL1        0.2105
     28 H          62.5969   81.0469   13.6240 H       1  UNL1        0.2105
     29 C          63.1887   81.1235   10.4517 C.3     1  UNL1        0.0039
     30 C          62.4333   81.6686   11.6274 C.3     1  UNL1        0.0462
     31 O          62.5254   88.6043    8.4828 O.3     1  UNL1       -0.3323
     32 C          61.1883   88.8002    7.8321 C.3     1  UNL1        0.2375
     33 C          60.9787   89.9371    6.8763 C.3     1  UNL1        0.0910
     34 C          59.6415   90.1330    6.2255 C.3     1  UNL1        0.1246
     35 C          58.5662   90.7275    5.3650 C.3     1  UNL1        0.0324
     36 C          58.5138   89.1920    6.5305 C.3     1  UNL1        0.1623
     37 O          57.1767   89.3880    5.8796 O.3     1  UNL1       -0.3796
     38 C          58.7235   88.0551    7.4862 C.3     1  UNL1        0.1468
     39 C          57.5958   87.1141    7.7912 C.3     1  UNL1        0.0348
     40 O          60.0606   87.8592    8.1370 O.3     1  UNL1       -0.3304
     41 H          57.2117   90.1616    5.2956 H       1  UNL1        0.2105
     42 O          60.3956   91.2805    5.6217 O.3     1  UNL1       -0.3532
     43 C          59.7666   92.1035    4.5369 C.3     1  UNL1        0.1740
     44 O          63.0095   91.1457   11.8249 O.3     1  UNL1       -0.3278
     45 C          64.3348   91.8418   11.7292 C.3     1  UNL1        0.2785
     46 O          64.9915   92.0240   10.3929 O.3     1  UNL1       -0.3302
     47 C          66.3168   92.7201   10.2973 C.3     1  UNL1        0.1198
     48 C          66.9734   92.9024    8.9609 C.3     1  UNL1        0.0322
     49 C          66.9854   93.2338   11.5378 C.3     1  UNL1        0.0534
     50 C          66.3287   93.0515   12.8741 C.3     1  UNL1        0.1245
     51 C          65.0035   92.3555   12.9698 C.3     1  UNL1        0.2426
     52 O          64.6005   92.3224   14.4143 O.2     1  UNL1       -0.4466
     53 C          65.6768   92.9980   15.2112 C.2     1  UNL1        0.2833
     54 N          65.6837   93.1894   16.6990 N.2     1  UNL1       -0.2263
     55 N          66.7449   93.4486   14.2594 N.pl3   1  UNL1       -0.2603
     56 C          68.0075   94.1697   14.6280 C.3     1  UNL1        0.1166
     57 C          64.5395   92.6823   17.5258 C.3     1  UNL1        0.1078
     58 C          63.7120   93.6412   18.3294 C.3     1  UNL1        0.0264
     59 C          64.2227   91.2163   17.5490 C.3     1  UNL1        0.0264
@<TRIPOS>BOND
     1    29    30    1
     2     1    30    1
     3     1     2    1
     4     2     3    1
     5     3     4    2
     6     3     5    1
     7     5     6    1
     8     5     7    1
     9     7    31    1
    10    32    31    1
    11    32    33    1
    12    33    34    1
    13    34    35    1
    14    34    42    1
    15    42    43    1
    16    34    36    1
    17    36    37    1
    18    36    38    1
    19    38    39    1
    20    38    40    1
    21     7     8    1
    22     8     9    1
    23     8    10    1
    24    10    44    1
    25    45    44    1
    26    45    46    1
    27    46    47    1
    28    47    48    1
    29    47    49    1
    30    50    49    1
    31    50    51    1
    32    51    52    1
    33    52    53    1
    34    53    54    2
    35    54    57    1
    36    57    58    1
    37    57    59    1
    38    53    55    1
    39    55    56    1
    40    10    11    1
    41    11    12    1
    42    11    13    1
    43    11    14    1
    44    14    15    1
    45    15    16    1
    46    15    17    1
    47    17    18    2
    48    17    19    1
    49    19    20    1
    50    19    21    1
    51    21    22    1
    52    21    23    1
    53    23    24    1
    54    23    25    1
    55    23     1    1
    56    40    32    1
    57    51    45    1
    58    55    50    1
    59    37    41    1
    60    13    26    1
    61    22    27    1
    62    25    28    1
