@<TRIPOS>MOLECULE
*****
 37 41 0 0 0
SMALL
GASTEIGER

@<TRIPOS>ATOM
      1 C          63.4648   88.2946   15.7289 C.3     1  UNL1        0.2246
      2 C          63.5403   86.8023   15.5966 C.2     1  UNL1        0.0436
      3 C          63.2959   85.9301   16.7923 C.2     1  UNL1        0.0288
      4 C          62.9760   86.5501   18.1202 C.2     1  UNL1        0.0896
      5 N          62.9004   88.0424   18.2524 N.am    1  UNL1       -0.1770
      6 C          63.1448   88.9146   17.0567 C.2     1  UNL1        0.2627
      7 O          63.0692   90.4068   17.1890 O.2     1  UNL1       -0.2719
      8 C          62.1373   89.8171   10.1607 C.3     1  UNL1        0.0312
      9 C          63.2171   90.5408   10.9094 C.2     1  UNL1        0.0121
     10 C          63.9686   91.6580   10.2483 C.2     1  UNL1       -0.0081
     11 C          65.0483   92.3816   10.9969 C.2     1  UNL1       -0.0194
     12 C          65.3766   91.9880   12.4067 C.2     1  UNL1        0.0425
     13 C          64.6251   90.8708   13.0678 C.2     1  UNL1        0.2231
     14 N          64.7264   90.2649   14.4362 N.2     1  UNL1       -0.0378
     15 C          63.7092   89.1668   14.5333 C.2     1  UNL1        0.3605
     16 N          62.9792   89.0940   13.2249 N.2     1  UNL1       -0.0547
     17 C          63.5453   90.1472   12.3191 C.3     1  UNL1        0.2975
     18 C          65.7999   93.4988   10.3357 C.3     1  UNL1        0.0252
     19 C          67.0194   93.1998    9.5151 C.3     1  UNL1        0.0217
     20 C          67.7709   94.3170    8.8540 C.3     1  UNL1        0.0725
     21 N          67.3029   95.7332    9.0135 N.3     1  UNL1       -0.2715
     22 C          68.0544   96.8504    8.3524 C.3     1  UNL1        0.0896
     23 C          66.0834   96.0322    9.8341 C.3     1  UNL1        0.0725
     24 C          65.3319   94.9150   10.4952 C.3     1  UNL1        0.0217
     25 N          63.8603   86.1823   14.2688 N.pl3   1  UNL1       -0.3329
     26 H          63.3695   86.4637   13.4631 H       1  UNL1        0.1466
     27 C          64.9280   85.1335   14.1686 C.3     1  UNL1        0.1211
     28 C          64.5607   83.6807   14.2347 C.3     1  UNL1        0.1522
     29 O          64.5720   82.9634   15.5521 O.3     1  UNL1       -0.3783
     30 H          64.8369   83.5791   16.2532 H       1  UNL1        0.2109
     31 C          64.1822   82.9451   12.9835 C.ar    1  UNL1        0.0067
     32 C          64.4512   83.5594   11.6418 C.ar    1  UNL1       -0.0018
     33 C          64.0727   82.8239   10.3905 C.ar    1  UNL1        0.0006
     34 C          63.4251   81.4738   10.4809 C.ar    1  UNL1        0.0114
     35 C          63.1562   80.8595   11.8226 C.ar    1  UNL1        0.0574
     36 CL         62.5086   79.5095   11.9130 Cl      1  UNL1       -0.0823
     37 C          63.5347   81.5951   13.0739 C.ar    1  UNL1        0.0095
@<TRIPOS>BOND
     1     8     9    1
     2     9    10    2
     3    10    11    1
     4    11    18    1
     5    18    19    1
     6    19    20    1
     7    20    21    1
     8    21    22    1
     9    21    23    1
    10    23    24    1
    11    11    12    2
    12    12    13    1
    13    13    14    2
    14    14    15    1
    15    15     1    1
    16     1     2    1
    17     2    25    1
    18    25    27    1
    19    27    28    1
    20    28    29    1
    21    28    31    1
    22    31    32   ar
    23    32    33   ar
    24    33    34   ar
    25    34    35   ar
    26    35    36    1
    27    35    37   ar
    28     2     3    2
    29     3     4    1
    30     4     5    2
    31     5     6    1
    32     6     7    2
    33    15    16    2
    34    16    17    1
    35    17     9    1
    36    24    18    1
    37    17    13    1
    38     6     1    1
    39    37    31   ar
    40    25    26    1
    41    29    30    1
@<TRIPOS>MOLECULE
*****
 37 41 0 0 0
SMALL
GASTEIGER

@<TRIPOS>ATOM
      1 C          61.2235   87.9978    9.9089 C.3     1  UNL1        0.2246
      2 C          61.0886   86.5275    9.6445 C.2     1  UNL1        0.0436
      3 C          60.1427   86.0393    8.5876 C.2     1  UNL1        0.0288
      4 C          59.3318   87.0213    7.7951 C.2     1  UNL1        0.0896
      5 N          59.4667   88.4916    8.0595 N.am    1  UNL1       -0.1770
      6 C          60.4126   88.9799    9.1164 C.2     1  UNL1        0.2627
      7 O          60.5475   90.4502    9.3807 O.2     1  UNL1       -0.2719
      8 C          63.9293   87.1799   15.1141 C.3     1  UNL1        0.0312
      9 C          64.1866   88.4202   14.3107 C.2     1  UNL1        0.0121
     10 C          65.1344   89.4632   14.8242 C.2     1  UNL1       -0.0081
     11 C          65.3917   90.7034   14.0209 C.2     1  UNL1       -0.0194
     12 C          64.7012   90.9008   12.7039 C.2     1  UNL1        0.0425
     13 C          63.7535   89.8577   12.1903 C.2     1  UNL1        0.2231
     14 N          62.9335   89.7766   10.9369 N.2     1  UNL1       -0.0378
     15 C          62.1693   88.4862   10.9657 C.2     1  UNL1        0.3605
     16 N          62.5171   87.7697   12.2368 N.2     1  UNL1       -0.0547
     17 C          63.4962   88.6174   12.9937 C.3     1  UNL1        0.2975
     18 C          66.3395   91.7466   14.5345 C.3     1  UNL1        0.0252
     19 C          66.2202   93.1656   14.0632 C.3     1  UNL1        0.0217
     20 C          67.1680   94.2086   14.5767 C.3     1  UNL1        0.0725
     21 N          68.2351   93.8327   15.5616 N.3     1  UNL1       -0.2715
     22 C          69.1829   94.8756   16.0752 C.3     1  UNL1        0.0896
     23 C          68.3544   92.4136   16.0329 C.3     1  UNL1        0.0725
     24 C          67.4066   91.3706   15.5194 C.3     1  UNL1        0.0217
     25 N          61.8994   85.5455   10.4369 N.pl3   1  UNL1       -0.3329
     26 H          61.6861   85.3818   11.3840 H       1  UNL1        0.1466
     27 C          63.0352   84.8128    9.7865 C.3     1  UNL1        0.1211
     28 C          63.6713   83.6459   10.4820 C.3     1  UNL1        0.1522
     29 O          64.6406   82.7705    9.7444 O.3     1  UNL1       -0.3783
     30 H          64.7429   83.0951    8.8361 H       1  UNL1        0.2109
     31 C          63.3380   83.3545   11.9152 C.ar    1  UNL1        0.0067
     32 C          63.9627   84.1667   13.0107 C.ar    1  UNL1       -0.0018
     33 C          63.6294   83.8752   14.4438 C.ar    1  UNL1        0.0006
     34 C          62.6714   82.7715   14.7816 C.ar    1  UNL1        0.0114
     35 C          62.0468   81.9593   13.6862 C.ar    1  UNL1        0.0574
     36 CL         61.0888   80.8555   14.0239 Cl      1  UNL1       -0.0823
     37 C          62.3801   82.2507   12.2530 C.ar    1  UNL1        0.0095
@<TRIPOS>BOND
     1     8     9    1
     2     9    10    2
     3    10    11    1
     4    11    18    1
     5    18    19    1
     6    19    20    1
     7    20    21    1
     8    21    22    1
     9    21    23    1
    10    23    24    1
    11    11    12    2
    12    12    13    1
    13    13    14    2
    14    14    15    1
    15    15     1    1
    16     1     2    1
    17     2    25    1
    18    25    27    1
    19    27    28    1
    20    28    29    1
    21    28    31    1
    22    31    32   ar
    23    32    33   ar
    24    33    34   ar
    25    34    35   ar
    26    35    36    1
    27    35    37   ar
    28     2     3    2
    29     3     4    1
    30     4     5    2
    31     5     6    1
    32     6     7    2
    33    15    16    2
    34    16    17    1
    35    17     9    1
    36    24    18    1
    37    17    13    1
    38     6     1    1
    39    37    31   ar
    40    25    26    1
    41    29    30    1
@<TRIPOS>MOLECULE
*****
 37 41 0 0 0
SMALL
GASTEIGER

@<TRIPOS>ATOM
      1 C          63.1494   83.3128   13.6159 C.3     1  UNL1        0.2246
      2 C          62.5703   82.9681   12.2759 C.2     1  UNL1        0.0436
      3 C          62.3266   81.5337   11.9108 C.2     1  UNL1        0.0288
      4 C          62.6619   80.4442   12.8857 C.2     1  UNL1        0.0896
      5 N          63.2410   80.7889   14.2257 N.am    1  UNL1       -0.1770
      6 C          63.4848   82.2233   14.5908 C.2     1  UNL1        0.2627
      7 O          64.0639   82.5681   15.9308 O.2     1  UNL1       -0.2719
      8 C          62.8316   87.6974   17.5857 C.3     1  UNL1        0.0312
      9 C          63.4055   87.9469   16.2225 C.2     1  UNL1        0.0121
     10 C          63.9037   89.3138   15.8571 C.2     1  UNL1       -0.0081
     11 C          64.4776   89.5633   14.4940 C.2     1  UNL1       -0.0194
     12 C          64.5535   88.4459   13.4961 C.2     1  UNL1        0.0425
     13 C          64.0554   87.0790   13.8614 C.2     1  UNL1        0.2231
     14 N          64.0009   85.7921   13.0929 N.2     1  UNL1       -0.0378
     15 C          63.3932   84.7471   13.9811 C.2     1  UNL1        0.3605
     16 N          63.0722   85.3883   15.2986 N.2     1  UNL1       -0.0547
     17 C          63.4814   86.8295   15.2247 C.3     1  UNL1        0.2975
     18 C          64.9757   90.9303   14.1286 C.3     1  UNL1        0.0252
     19 C          64.7847   91.4503   12.7347 C.3     1  UNL1        0.0217
     20 C          65.2828   92.8172   12.3693 C.3     1  UNL1        0.0725
     21 N          65.9719   93.6640   13.3979 N.3     1  UNL1       -0.2715
     22 C          66.4700   95.0309   13.0326 C.3     1  UNL1        0.0896
     23 C          66.1630   93.1440   14.7918 C.3     1  UNL1        0.0725
     24 C          65.6649   91.7771   15.1572 C.3     1  UNL1        0.0217
     25 N          62.2350   84.0575   11.3009 N.pl3   1  UNL1       -0.3329
     26 H          61.3909   84.5562   11.3912 H       1  UNL1        0.1466
     27 C          63.1856   84.3873   10.1885 C.3     1  UNL1        0.1211
     28 C          62.7163   85.1971    9.0163 C.3     1  UNL1        0.1522
     29 O          63.0639   84.7688    7.6214 O.3     1  UNL1       -0.3783
     30 H          63.5916   83.9556    7.6549 H       1  UNL1        0.2109
     31 C          61.8994   86.4353    9.2391 C.ar    1  UNL1        0.0067
     32 C          60.6096   86.6264    8.4975 C.ar    1  UNL1       -0.0018
     33 C          59.7927   87.8645    8.7203 C.ar    1  UNL1        0.0006
     34 C          60.2655   88.9116    9.6846 C.ar    1  UNL1        0.0114
     35 C          61.5553   88.7206   10.4262 C.ar    1  UNL1        0.0574
     36 CL         62.0282   89.7677   11.3905 Cl      1  UNL1       -0.0823
     37 C          62.3722   87.4824   10.2034 C.ar    1  UNL1        0.0095
@<TRIPOS>BOND
     1     8     9    1
     2     9    10    2
     3    10    11    1
     4    11    18    1
     5    18    19    1
     6    19    20    1
     7    20    21    1
     8    21    22    1
     9    21    23    1
    10    23    24    1
    11    11    12    2
    12    12    13    1
    13    13    14    2
    14    14    15    1
    15    15     1    1
    16     1     2    1
    17     2    25    1
    18    25    27    1
    19    27    28    1
    20    28    29    1
    21    28    31    1
    22    31    32   ar
    23    32    33   ar
    24    33    34   ar
    25    34    35   ar
    26    35    36    1
    27    35    37   ar
    28     2     3    2
    29     3     4    1
    30     4     5    2
    31     5     6    1
    32     6     7    2
    33    15    16    2
    34    16    17    1
    35    17     9    1
    36    24    18    1
    37    17    13    1
    38     6     1    1
    39    37    31   ar
    40    25    26    1
    41    29    30    1
@<TRIPOS>MOLECULE
*****
 37 41 0 0 0
SMALL
GASTEIGER

@<TRIPOS>ATOM
      1 C          62.9151   84.6724   14.2433 C.3     1  UNL1        0.2246
      2 C          62.8931   83.8988   12.9583 C.2     1  UNL1        0.0436
      3 C          62.5507   82.4384   12.9679 C.2     1  UNL1        0.0288
      4 C          62.2304   81.7516   14.2624 C.2     1  UNL1        0.0896
      5 N          62.2525   82.5252   15.5473 N.am    1  UNL1       -0.1770
      6 C          62.5948   83.9856   15.5377 C.2     1  UNL1        0.2627
      7 O          62.6169   84.7591   16.8227 O.2     1  UNL1       -0.2719
      8 C          63.3214   89.8416   17.1066 C.3     1  UNL1        0.0312
      9 C          63.7011   89.7432   15.6588 C.2     1  UNL1        0.0121
     10 C          64.1874   90.9587   14.9266 C.2     1  UNL1       -0.0081
     11 C          64.5671   90.8603   13.4789 C.2     1  UNL1       -0.0194
     12 C          64.4604   89.5463   12.7631 C.2     1  UNL1        0.0425
     13 C          63.9741   88.3308   13.4953 C.2     1  UNL1        0.2231
     14 N          63.7659   86.9115   13.0569 N.2     1  UNL1       -0.0378
     15 C          63.2575   86.1328   14.2338 C.2     1  UNL1        0.3605
     16 N          63.1515   87.0708   15.3995 N.2     1  UNL1       -0.0547
     17 C          63.5945   88.4293   14.9431 C.3     1  UNL1        0.2975
     18 C          65.0534   92.0759   12.7467 C.3     1  UNL1        0.0252
     19 C          65.8676   93.1095   13.4670 C.3     1  UNL1        0.0217
     20 C          66.3539   94.3250   12.7349 C.3     1  UNL1        0.0725
     21 N          66.0261   94.5069   11.2825 N.3     1  UNL1       -0.2715
     22 C          66.5123   95.7223   10.5503 C.3     1  UNL1        0.0896
     23 C          65.2119   93.4732   10.5622 C.3     1  UNL1        0.0725
     24 C          64.7256   92.2577   11.2943 C.3     1  UNL1        0.0217
     25 N          63.2134   84.5856   11.6638 N.pl3   1  UNL1       -0.3329
     26 H          64.1302   84.8968   11.4854 H       1  UNL1        0.1466
     27 C          62.1368   84.7982   10.6411 C.3     1  UNL1        0.1211
     28 C          62.3918   85.6823    9.4566 C.3     1  UNL1        0.1522
     29 O          63.3385   85.2400    8.3805 O.3     1  UNL1       -0.3783
     30 H          63.6964   84.3665    8.6036 H       1  UNL1        0.2109
     31 C          61.7000   87.0088    9.3481 C.ar    1  UNL1        0.0067
     32 C          62.0749   88.1282   10.2736 C.ar    1  UNL1       -0.0018
     33 C          61.3830   89.4547   10.1652 C.ar    1  UNL1        0.0006
     34 C          60.3163   89.6619    9.1312 C.ar    1  UNL1        0.0114
     35 C          59.9414   88.5426    8.2057 C.ar    1  UNL1        0.0574
     36 CL         58.8746   88.7498    7.1718 Cl      1  UNL1       -0.0823
     37 C          60.6332   87.2161    8.3142 C.ar    1  UNL1        0.0095
@<TRIPOS>BOND
     1     8     9    1
     2     9    10    2
     3    10    11    1
     4    11    18    1
     5    18    19    1
     6    19    20    1
     7    20    21    1
     8    21    22    1
     9    21    23    1
    10    23    24    1
    11    11    12    2
    12    12    13    1
    13    13    14    2
    14    14    15    1
    15    15     1    1
    16     1     2    1
    17     2    25    1
    18    25    27    1
    19    27    28    1
    20    28    29    1
    21    28    31    1
    22    31    32   ar
    23    32    33   ar
    24    33    34   ar
    25    34    35   ar
    26    35    36    1
    27    35    37   ar
    28     2     3    2
    29     3     4    1
    30     4     5    2
    31     5     6    1
    32     6     7    2
    33    15    16    2
    34    16    17    1
    35    17     9    1
    36    24    18    1
    37    17    13    1
    38     6     1    1
    39    37    31   ar
    40    25    26    1
    41    29    30    1
@<TRIPOS>MOLECULE
*****
 37 41 0 0 0
SMALL
GASTEIGER

@<TRIPOS>ATOM
      1 C          62.9208   84.5440   13.9064 C.3     1  UNL1        0.2246
      2 C          62.9427   83.6738   12.6848 C.2     1  UNL1        0.0436
      3 C          62.4681   82.2532   12.7674 C.2     1  UNL1        0.0288
      4 C          61.9716   81.7028   14.0714 C.2     1  UNL1        0.0896
      5 N          61.9497   82.5730   15.2930 N.am    1  UNL1       -0.1770
      6 C          62.4243   83.9936   15.2105 C.2     1  UNL1        0.2627
      7 O          62.4023   84.8637   16.4321 O.2     1  UNL1       -0.2719
      8 C          62.6061   89.8958   11.3878 C.3     1  UNL1        0.0312
      9 C          63.5713   89.6383   12.5068 C.2     1  UNL1        0.0121
     10 C          64.4649   90.7397   12.9949 C.2     1  UNL1       -0.0081
     11 C          65.4301   90.4823   14.1137 C.2     1  UNL1       -0.0194
     12 C          65.5017   89.1232   14.7447 C.2     1  UNL1        0.0425
     13 C          64.6082   88.0218   14.2566 C.2     1  UNL1        0.2231
     14 N          64.4551   86.5912   14.6808 N.2     1  UNL1       -0.0378
     15 C          63.3953   85.9645   13.8240 C.2     1  UNL1        0.3605
     16 N          62.8934   87.0078   12.8703 N.2     1  UNL1       -0.0547
     17 C          63.6429   88.2793   13.1376 C.3     1  UNL1        0.2975
     18 C          66.3237   91.5838   14.6019 C.3     1  UNL1        0.0252
     19 C          66.1460   92.9796   14.0821 C.3     1  UNL1        0.0217
     20 C          67.0396   94.0811   14.5701 C.3     1  UNL1        0.0725
     21 N          68.1108   93.7868   15.5780 N.3     1  UNL1       -0.2715
     22 C          69.0044   94.8882   16.0661 C.3     1  UNL1        0.0896
     23 C          68.2885   92.3910   16.0978 C.3     1  UNL1        0.0725
     24 C          67.3950   91.2895   15.6097 C.3     1  UNL1        0.0217
     25 N          63.4392   84.2241   11.3808 N.pl3   1  UNL1       -0.3329
     26 H          64.3380   84.6219   11.3247 H       1  UNL1        0.1466
     27 C          62.5663   84.1684   10.1622 C.3     1  UNL1        0.1211
     28 C          62.5290   85.3290    9.2127 C.3     1  UNL1        0.1522
     29 O          63.5268   85.4168    8.0961 O.3     1  UNL1       -0.3783
     30 H          64.1193   84.6496    8.1308 H       1  UNL1        0.2109
     31 C          61.4940   86.4017    9.3797 C.ar    1  UNL1        0.0067
     32 C          60.9960   86.7568   10.7493 C.ar    1  UNL1       -0.0018
     33 C          59.9610   87.8295   10.9164 C.ar    1  UNL1        0.0006
     34 C          59.4238   88.5473    9.7138 C.ar    1  UNL1        0.0114
     35 C          59.9218   88.1922    8.3441 C.ar    1  UNL1        0.0574
     36 CL         59.3847   88.9100    7.1415 Cl      1  UNL1       -0.0823
     37 C          60.9568   87.1195    8.1771 C.ar    1  UNL1        0.0095
@<TRIPOS>BOND
     1     8     9    1
     2     9    10    2
     3    10    11    1
     4    11    18    1
     5    18    19    1
     6    19    20    1
     7    20    21    1
     8    21    22    1
     9    21    23    1
    10    23    24    1
    11    11    12    2
    12    12    13    1
    13    13    14    2
    14    14    15    1
    15    15     1    1
    16     1     2    1
    17     2    25    1
    18    25    27    1
    19    27    28    1
    20    28    29    1
    21    28    31    1
    22    31    32   ar
    23    32    33   ar
    24    33    34   ar
    25    34    35   ar
    26    35    36    1
    27    35    37   ar
    28     2     3    2
    29     3     4    1
    30     4     5    2
    31     5     6    1
    32     6     7    2
    33    15    16    2
    34    16    17    1
    35    17     9    1
    36    24    18    1
    37    17    13    1
    38     6     1    1
    39    37    31   ar
    40    25    26    1
    41    29    30    1
