@<TRIPOS>MOLECULE
*****
 31 34 0 0 0
SMALL
GASTEIGER

@<TRIPOS>ATOM
      1 C          63.2562   90.6631   12.3483 C.3     1  UNL1        0.0328
      2 C          63.5307   89.3001   12.9115 C.ar    1  UNL1        0.0002
      3 C          64.2987   89.1586   14.1922 C.ar    1  UNL1        0.0774
      4 N          64.5732   87.7958   14.7555 N.ar    1  UNL1       -0.2457
      5 C          64.0797   86.5744   14.0380 C.ar    1  UNL1        0.0814
      6 C          64.3542   85.2116   14.6013 C.ar    1  UNL1        0.0196
      7 C          63.8607   83.9902   13.8838 C.ar    1  UNL1        0.0082
      8 C          63.0928   84.1317   12.6031 C.ar    1  UNL1        0.0347
      9 BR         62.5993   82.9103   11.8857 Br      1  UNL1       -0.0490
     10 C          62.8183   85.4945   12.0399 C.ar    1  UNL1        0.0083
     11 C          63.3117   86.7159   12.7573 C.ar    1  UNL1        0.0222
     12 C          63.0372   88.0788   12.1941 C.ar    1  UNL1        0.0523
     13 C          64.7921   90.3801   14.9097 C.ar    1  UNL1        0.0173
     14 C          66.0957   91.0074   14.5133 C.ar    1  UNL1        0.0015
     15 C          66.5891   92.2287   15.2307 C.ar    1  UNL1        0.0000
     16 C          65.7789   92.8228   16.3446 C.ar    1  UNL1        0.0000
     17 C          64.4754   92.1955   16.7410 C.ar    1  UNL1        0.0000
     18 C          63.9820   90.9741   16.0236 C.ar    1  UNL1        0.0015
     19 C          62.2693   88.2203   10.9134 C.2     1  UNL1        0.2456
     20 O          62.9447   88.7656    9.6902 O.2     1  UNL1       -0.2702
     21 N          60.8257   87.8164   10.8559 N.am    1  UNL1       -0.3021
     22 H          60.3824   87.4585   11.6588 H       1  UNL1        0.1497
     23 C          60.0578   87.9579    9.5752 C.3     1  UNL1        0.0778
     24 C          59.7289   89.3218    9.0447 C.3     1  UNL1        0.0217
     25 C          59.6187   86.7354    8.8250 C.3     1  UNL1        0.0653
     26 C          60.6199   85.9313    8.0498 C.ar    1  UNL1        0.0607
     27 C          62.0354   85.8268    8.5352 C.ar    1  UNL1        0.0148
     28 C          63.0367   85.0227    7.7601 C.ar    1  UNL1        0.0028
     29 C          62.6224   84.3230    6.4995 C.ar    1  UNL1        0.0207
     30 C          61.2070   84.4275    6.0142 C.ar    1  UNL1        0.0984
     31 N          60.2058   85.2316    6.7893 N.ar    1  UNL1       -0.2481
@<TRIPOS>BOND
     1     1     2    1
     2     2     3   ar
     3     3    13    1
     4    13    14   ar
     5    14    15   ar
     6    15    16   ar
     7    16    17   ar
     8    17    18   ar
     9     3     4   ar
    10     4     5   ar
    11     5     6   ar
    12     6     7   ar
    13     7     8   ar
    14     8     9    1
    15     8    10   ar
    16    10    11   ar
    17    11    12   ar
    18    12    19    1
    19    19    20    2
    20    19    21   am
    21    21    23    1
    22    23    24    1
    23    23    25    1
    24    25    26    1
    25    26    27   ar
    26    27    28   ar
    27    28    29   ar
    28    29    30   ar
    29    30    31   ar
    30    12     2   ar
    31    31    26   ar
    32    18    13   ar
    33    11     5   ar
    34    21    22    1
@<TRIPOS>MOLECULE
*****
 31 34 0 0 0
SMALL
GASTEIGER

@<TRIPOS>ATOM
      1 C          62.3875   85.0688   11.6864 C.3     1  UNL1        0.0328
      2 C          62.6624   86.5426   11.6370 C.ar    1  UNL1        0.0002
      3 C          62.3202   87.3285   10.4061 C.ar    1  UNL1        0.0774
      4 N          62.5952   88.8022   10.3567 N.ar    1  UNL1       -0.2457
      5 C          63.2123   89.4901   11.5382 C.ar    1  UNL1        0.0814
      6 C          63.4873   90.9638   11.4888 C.ar    1  UNL1        0.0196
      7 C          64.1044   91.6517   12.6703 C.ar    1  UNL1        0.0082
      8 C          64.4466   90.8657   13.9012 C.ar    1  UNL1        0.0347
      9 BR         65.0638   91.5536   15.0828 Br      1  UNL1       -0.0490
     10 C          64.1717   89.3920   13.9507 C.ar    1  UNL1        0.0083
     11 C          63.5545   88.7042   12.7692 C.ar    1  UNL1        0.0222
     12 C          63.2796   87.2304   12.8185 C.ar    1  UNL1        0.0523
     13 C          61.7030   86.6406    9.2246 C.ar    1  UNL1        0.0173
     14 C          60.2584   86.8708    8.8930 C.ar    1  UNL1        0.0015
     15 C          59.6413   86.1829    7.7115 C.ar    1  UNL1        0.0000
     16 C          60.4688   85.2649    6.8616 C.ar    1  UNL1        0.0000
     17 C          61.9135   85.0347    7.1931 C.ar    1  UNL1        0.0000
     18 C          62.5306   85.7226    8.3746 C.ar    1  UNL1        0.0015
     19 C          63.6218   86.4445   14.0495 C.2     1  UNL1        0.2456
     20 O          65.0450   86.3636   14.5161 O.2     1  UNL1       -0.2702
     21 N          62.5407   85.7394   14.8138 N.am    1  UNL1       -0.3021
     22 H          61.6065   85.7925   14.5075 H       1  UNL1        0.1497
     23 C          62.8829   84.9535   16.0448 C.3     1  UNL1        0.0778
     24 C          62.9069   85.6294   17.3836 C.3     1  UNL1        0.0217
     25 C          63.2010   83.4915   15.9368 C.3     1  UNL1        0.0653
     26 C          63.1823   82.8168   14.5973 C.ar    1  UNL1        0.0607
     27 C          62.0211   81.9495   14.2105 C.ar    1  UNL1        0.0148
     28 C          62.0023   81.2748   12.8710 C.ar    1  UNL1        0.0028
     29 C          63.1448   81.4674   11.9182 C.ar    1  UNL1        0.0207
     30 C          64.3059   82.3346   12.3049 C.ar    1  UNL1        0.0984
     31 N          64.3247   83.0094   13.6445 N.ar    1  UNL1       -0.2481
@<TRIPOS>BOND
     1     1     2    1
     2     2     3   ar
     3     3    13    1
     4    13    14   ar
     5    14    15   ar
     6    15    16   ar
     7    16    17   ar
     8    17    18   ar
     9     3     4   ar
    10     4     5   ar
    11     5     6   ar
    12     6     7   ar
    13     7     8   ar
    14     8     9    1
    15     8    10   ar
    16    10    11   ar
    17    11    12   ar
    18    12    19    1
    19    19    20    2
    20    19    21   am
    21    21    23    1
    22    23    24    1
    23    23    25    1
    24    25    26    1
    25    26    27   ar
    26    27    28   ar
    27    28    29   ar
    28    29    30   ar
    29    30    31   ar
    30    12     2   ar
    31    31    26   ar
    32    18    13   ar
    33    11     5   ar
    34    21    22    1
@<TRIPOS>MOLECULE
*****
 31 34 0 0 0
SMALL
GASTEIGER

@<TRIPOS>ATOM
      1 C          63.8110   91.7709    9.6721 C.3     1  UNL1        0.0328
      2 C          64.1708   91.7536   11.1282 C.ar    1  UNL1        0.0002
      3 C          65.2524   92.6558   11.6443 C.ar    1  UNL1        0.0774
      4 N          65.6122   92.6385   13.1003 N.ar    1  UNL1       -0.2457
      5 C          64.8904   91.7191   14.0405 C.ar    1  UNL1        0.0814
      6 C          65.2502   91.7019   15.4965 C.ar    1  UNL1        0.0196
      7 C          64.5285   90.7825   16.4366 C.ar    1  UNL1        0.0082
      8 C          63.4469   89.8804   15.9205 C.ar    1  UNL1        0.0347
      9 BR         62.7251   88.9609   16.8607 Br      1  UNL1       -0.0490
     10 C          63.0871   89.8976   14.4645 C.ar    1  UNL1        0.0083
     11 C          63.8088   90.8170   13.5244 C.ar    1  UNL1        0.0222
     12 C          63.4490   90.8342   12.0683 C.ar    1  UNL1        0.0523
     13 C          65.9742   93.5752   10.7041 C.ar    1  UNL1        0.0173
     14 C          65.5256   94.9988   10.5552 C.ar    1  UNL1        0.0015
     15 C          66.2474   95.9181    9.6152 C.ar    1  UNL1        0.0000
     16 C          67.4177   95.4139    8.8239 C.ar    1  UNL1        0.0000
     17 C          67.8663   93.9903    8.9728 C.ar    1  UNL1        0.0000
     18 C          67.1445   93.0710    9.9129 C.ar    1  UNL1        0.0015
     19 C          62.3674   89.9321   11.5523 C.2     1  UNL1        0.2456
     20 O          60.9356   90.3771   11.5953 O.2     1  UNL1       -0.2702
     21 N          62.7177   88.5849   10.9932 N.am    1  UNL1       -0.3021
     22 H          63.6575   88.2929   10.9649 H       1  UNL1        0.1497
     23 C          61.6361   87.6828   10.4771 C.3     1  UNL1        0.0778
     24 C          60.9158   88.0258    9.2069 C.3     1  UNL1        0.0217
     25 C          61.2748   86.4375   11.2314 C.3     1  UNL1        0.0653
     26 C          62.3041   85.3688   11.4517 C.ar    1  UNL1        0.0607
     27 C          62.8062   84.5607   10.2920 C.ar    1  UNL1        0.0148
     28 C          63.8355   83.4920   10.5122 C.ar    1  UNL1        0.0028
     29 C          64.3627   83.2316   11.8922 C.ar    1  UNL1        0.0207
     30 C          63.8607   84.0397   13.0518 C.ar    1  UNL1        0.0984
     31 N          62.8313   85.1084   12.8316 N.ar    1  UNL1       -0.2481
@<TRIPOS>BOND
     1     1     2    1
     2     2     3   ar
     3     3    13    1
     4    13    14   ar
     5    14    15   ar
     6    15    16   ar
     7    16    17   ar
     8    17    18   ar
     9     3     4   ar
    10     4     5   ar
    11     5     6   ar
    12     6     7   ar
    13     7     8   ar
    14     8     9    1
    15     8    10   ar
    16    10    11   ar
    17    11    12   ar
    18    12    19    1
    19    19    20    2
    20    19    21   am
    21    21    23    1
    22    23    24    1
    23    23    25    1
    24    25    26    1
    25    26    27   ar
    26    27    28   ar
    27    28    29   ar
    28    29    30   ar
    29    30    31   ar
    30    12     2   ar
    31    31    26   ar
    32    18    13   ar
    33    11     5   ar
    34    21    22    1
@<TRIPOS>MOLECULE
*****
 31 34 0 0 0
SMALL
GASTEIGER

@<TRIPOS>ATOM
      1 C          62.2303   85.3904   11.8294 C.3     1  UNL1        0.0328
      2 C          62.5871   86.8462   11.7714 C.ar    1  UNL1        0.0002
      3 C          62.2065   87.6645   10.5732 C.ar    1  UNL1        0.0774
      4 N          62.5633   89.1203   10.5152 N.ar    1  UNL1       -0.2457
      5 C          63.3007   89.7578   11.6553 C.ar    1  UNL1        0.0814
      6 C          63.6575   91.2136   11.5973 C.ar    1  UNL1        0.0196
      7 C          64.3948   91.8511   12.7374 C.ar    1  UNL1        0.0082
      8 C          64.7754   91.0328   13.9355 C.ar    1  UNL1        0.0347
      9 BR         65.5128   91.6704   15.0757 Br      1  UNL1       -0.0490
     10 C          64.4186   89.5770   13.9936 C.ar    1  UNL1        0.0083
     11 C          63.6813   88.9396   12.8535 C.ar    1  UNL1        0.0222
     12 C          63.3245   87.4837   12.9115 C.ar    1  UNL1        0.0523
     13 C          61.4691   87.0269    9.4331 C.ar    1  UNL1        0.0173
     14 C          62.1701   86.0445    8.5424 C.ar    1  UNL1        0.0015
     15 C          61.4327   85.4070    7.4023 C.ar    1  UNL1        0.0000
     16 C          59.9944   85.7519    7.1530 C.ar    1  UNL1        0.0000
     17 C          59.2934   86.7344    8.0437 C.ar    1  UNL1        0.0000
     18 C          60.0308   87.3719    9.1837 C.ar    1  UNL1        0.0015
     19 C          63.7050   86.6654   14.1097 C.2     1  UNL1        0.2456
     20 O          65.1419   86.5750   14.5305 O.2     1  UNL1       -0.2702
     21 N          62.6486   85.9375   14.8870 N.am    1  UNL1       -0.3021
     22 H          61.7055   85.9969   14.6108 H       1  UNL1        0.1497
     23 C          63.0292   85.1193   16.0852 C.3     1  UNL1        0.0778
     24 C          62.7623   85.6416   17.4657 C.3     1  UNL1        0.0217
     25 C          63.6768   83.7785   15.9028 C.3     1  UNL1        0.0653
     26 C          63.3835   82.9644   14.6775 C.ar    1  UNL1        0.0607
     27 C          64.3054   83.0287   13.4960 C.ar    1  UNL1        0.0148
     28 C          64.0121   82.2146   12.2707 C.ar    1  UNL1        0.0028
     29 C          62.7968   81.3363   12.2270 C.ar    1  UNL1        0.0207
     30 C          61.8750   81.2721   13.4085 C.ar    1  UNL1        0.0984
     31 N          62.1683   82.0862   14.6338 N.ar    1  UNL1       -0.2481
@<TRIPOS>BOND
     1     1     2    1
     2     2     3   ar
     3     3    13    1
     4    13    14   ar
     5    14    15   ar
     6    15    16   ar
     7    16    17   ar
     8    17    18   ar
     9     3     4   ar
    10     4     5   ar
    11     5     6   ar
    12     6     7   ar
    13     7     8   ar
    14     8     9    1
    15     8    10   ar
    16    10    11   ar
    17    11    12   ar
    18    12    19    1
    19    19    20    2
    20    19    21   am
    21    21    23    1
    22    23    24    1
    23    23    25    1
    24    25    26    1
    25    26    27   ar
    26    27    28   ar
    27    28    29   ar
    28    29    30   ar
    29    30    31   ar
    30    12     2   ar
    31    31    26   ar
    32    18    13   ar
    33    11     5   ar
    34    21    22    1
@<TRIPOS>MOLECULE
*****
 31 34 0 0 0
SMALL
GASTEIGER

@<TRIPOS>ATOM
      1 C          63.4309   86.9452   13.0066 C.3     1  UNL1        0.0328
      2 C          62.5967   86.7195   11.7805 C.ar    1  UNL1        0.0002
      3 C          62.3105   85.3226   11.3148 C.ar    1  UNL1        0.0774
      4 N          61.4764   85.0967   10.0888 N.ar    1  UNL1       -0.2457
      5 C          60.9284   86.2678    9.3283 C.ar    1  UNL1        0.0814
      6 C          60.0942   86.0420    8.1023 C.ar    1  UNL1        0.0196
      7 C          59.5463   87.2131    7.3419 C.ar    1  UNL1        0.0082
      8 C          59.8324   88.6100    7.8076 C.ar    1  UNL1        0.0347
      9 BR         59.2844   89.7811    7.0471 Br      1  UNL1       -0.0490
     10 C          60.6665   88.8358    9.0336 C.ar    1  UNL1        0.0083
     11 C          61.2145   87.6647    9.7940 C.ar    1  UNL1        0.0222
     12 C          62.0487   87.8905   11.0201 C.ar    1  UNL1        0.0523
     13 C          62.8586   84.1514   12.0753 C.ar    1  UNL1        0.0173
     14 C          63.9298   83.2964   11.4660 C.ar    1  UNL1        0.0015
     15 C          64.4778   82.1254   12.2264 C.ar    1  UNL1        0.0000
     16 C          63.9545   81.8094   13.5962 C.ar    1  UNL1        0.0000
     17 C          62.8833   82.6644   14.2056 C.ar    1  UNL1        0.0000
     18 C          62.3354   83.8355   13.4451 C.ar    1  UNL1        0.0015
     19 C          62.3349   89.2874   11.4857 C.2     1  UNL1        0.2456
     20 O          61.2479   90.1044   12.1189 O.2     1  UNL1       -0.2702
     21 N          63.7081   89.8673   11.3181 N.am    1  UNL1       -0.3021
     22 H          64.4215   89.3311   10.9025 H       1  UNL1        0.1497
     23 C          63.9942   91.2642   11.7837 C.3     1  UNL1        0.0778
     24 C          64.2566   92.3497   10.7823 C.3     1  UNL1        0.0217
     25 C          64.0180   91.5757   13.2509 C.3     1  UNL1        0.0653
     26 C          65.3198   91.8762   13.9328 C.ar    1  UNL1        0.0607
     27 C          66.6129   91.6917   13.1953 C.ar    1  UNL1        0.0148
     28 C          67.9147   91.9922   13.8772 C.ar    1  UNL1        0.0028
     29 C          67.9234   92.4772   15.2966 C.ar    1  UNL1        0.0207
     30 C          66.6303   92.6617   16.0341 C.ar    1  UNL1        0.0984
     31 N          65.3285   92.3612   15.3522 N.ar    1  UNL1       -0.2481
@<TRIPOS>BOND
     1     1     2    1
     2     2     3   ar
     3     3    13    1
     4    13    14   ar
     5    14    15   ar
     6    15    16   ar
     7    16    17   ar
     8    17    18   ar
     9     3     4   ar
    10     4     5   ar
    11     5     6   ar
    12     6     7   ar
    13     7     8   ar
    14     8     9    1
    15     8    10   ar
    16    10    11   ar
    17    11    12   ar
    18    12    19    1
    19    19    20    2
    20    19    21   am
    21    21    23    1
    22    23    24    1
    23    23    25    1
    24    25    26    1
    25    26    27   ar
    26    27    28   ar
    27    28    29   ar
    28    29    30   ar
    29    30    31   ar
    30    12     2   ar
    31    31    26   ar
    32    18    13   ar
    33    11     5   ar
    34    21    22    1
@<TRIPOS>MOLECULE
*****
 31 34 0 0 0
SMALL
GASTEIGER

@<TRIPOS>ATOM
      1 C          63.4916   87.1855   13.0474 C.3     1  UNL1        0.0328
      2 C          62.6380   86.9194   11.8429 C.ar    1  UNL1        0.0002
      3 C          62.3225   85.5082   11.4442 C.ar    1  UNL1        0.0774
      4 N          61.4689   85.2421   10.2398 N.ar    1  UNL1       -0.2457
      5 C          60.9308   86.3872    9.4341 C.ar    1  UNL1        0.0814
      6 C          60.0772   86.1211    8.2297 C.ar    1  UNL1        0.0196
      7 C          59.5392   87.2662    7.4240 C.ar    1  UNL1        0.0082
      8 C          59.8547   88.6774    7.8227 C.ar    1  UNL1        0.0347
      9 BR         59.3165   89.8226    7.0169 Br      1  UNL1       -0.0490
     10 C          60.7082   88.9435    9.0271 C.ar    1  UNL1        0.0083
     11 C          61.2463   87.7984    9.8328 C.ar    1  UNL1        0.0222
     12 C          62.0999   88.0645   11.0372 C.ar    1  UNL1        0.0523
     13 C          62.8606   84.3631   12.2500 C.ar    1  UNL1        0.0173
     14 C          62.3849   84.1464   13.6559 C.ar    1  UNL1        0.0015
     15 C          62.9231   83.0013   14.4616 C.ar    1  UNL1        0.0000
     16 C          63.9368   82.0729   13.8613 C.ar    1  UNL1        0.0000
     17 C          64.4125   82.2896   12.4554 C.ar    1  UNL1        0.0000
     18 C          63.8744   83.4347   11.6497 C.ar    1  UNL1        0.0015
     19 C          62.4154   89.4757   11.4359 C.2     1  UNL1        0.2456
     20 O          61.3072   90.4154   11.8085 O.2     1  UNL1       -0.2702
     21 N          63.8392   89.9473   11.4620 N.am    1  UNL1       -0.3021
     22 H          64.5665   89.3305   11.2174 H       1  UNL1        0.1497
     23 C          64.1546   91.3585   11.8607 C.3     1  UNL1        0.0778
     24 C          64.4733   91.6804   13.2906 C.3     1  UNL1        0.0217
     25 C          64.1514   92.4477   10.8294 C.3     1  UNL1        0.0653
     26 C          65.4390   93.1043   10.4280 C.ar    1  UNL1        0.0607
     27 C          66.6353   92.2649   10.0895 C.ar    1  UNL1        0.0148
     28 C          67.9228   92.9214    9.6881 C.ar    1  UNL1        0.0028
     29 C          68.0142   94.4173    9.6252 C.ar    1  UNL1        0.0207
     30 C          66.8180   95.2567    9.9636 C.ar    1  UNL1        0.0984
     31 N          65.5304   94.6001   10.3650 N.ar    1  UNL1       -0.2481
@<TRIPOS>BOND
     1     1     2    1
     2     2     3   ar
     3     3    13    1
     4    13    14   ar
     5    14    15   ar
     6    15    16   ar
     7    16    17   ar
     8    17    18   ar
     9     3     4   ar
    10     4     5   ar
    11     5     6   ar
    12     6     7   ar
    13     7     8   ar
    14     8     9    1
    15     8    10   ar
    16    10    11   ar
    17    11    12   ar
    18    12    19    1
    19    19    20    2
    20    19    21   am
    21    21    23    1
    22    23    24    1
    23    23    25    1
    24    25    26    1
    25    26    27   ar
    26    27    28   ar
    27    28    29   ar
    28    29    30   ar
    29    30    31   ar
    30    12     2   ar
    31    31    26   ar
    32    18    13   ar
    33    11     5   ar
    34    21    22    1
@<TRIPOS>MOLECULE
*****
 31 34 0 0 0
SMALL
GASTEIGER

@<TRIPOS>ATOM
      1 C          61.8262   90.3825   10.7418 C.3     1  UNL1        0.0328
      2 C          62.1193   88.9796   11.1846 C.ar    1  UNL1        0.0002
      3 C          61.5320   87.8191   10.4375 C.ar    1  UNL1        0.0774
      4 N          61.8251   86.4163   10.8803 N.ar    1  UNL1       -0.2457
      5 C          62.7057   86.1739   12.0703 C.ar    1  UNL1        0.0814
      6 C          62.9988   84.7711   12.5131 C.ar    1  UNL1        0.0196
      7 C          63.8792   84.5288   13.7030 C.ar    1  UNL1        0.0082
      8 C          64.4666   85.6893   14.4502 C.ar    1  UNL1        0.0347
      9 BR         65.3471   85.4469   15.6402 Br      1  UNL1       -0.0490
     10 C          64.1734   87.0921   14.0074 C.ar    1  UNL1        0.0083
     11 C          63.2930   87.3344   12.8174 C.ar    1  UNL1        0.0222
     12 C          62.9998   88.7373   12.3746 C.ar    1  UNL1        0.0523
     13 C          60.6515   88.0614    9.2475 C.ar    1  UNL1        0.0173
     14 C          60.5407   89.4391    8.6646 C.ar    1  UNL1        0.0015
     15 C          59.6602   89.6814    7.4747 C.ar    1  UNL1        0.0000
     16 C          58.8906   88.5460    6.8676 C.ar    1  UNL1        0.0000
     17 C          59.0014   87.1684    7.4504 C.ar    1  UNL1        0.0000
     18 C          59.8818   86.9261    8.6404 C.ar    1  UNL1        0.0015
     19 C          63.5871   89.8978   13.1217 C.2     1  UNL1        0.2456
     20 O          62.9460   90.3743   14.3913 O.2     1  UNL1       -0.2702
     21 N          64.8156   90.5819   12.5992 N.am    1  UNL1       -0.3021
     22 H          65.2364   90.2692   11.7659 H       1  UNL1        0.1497
     23 C          65.4030   91.7424   13.3464 C.3     1  UNL1        0.0778
     24 C          65.8191   91.5794   14.7782 C.3     1  UNL1        0.0217
     25 C          65.5742   93.0660   12.6616 C.3     1  UNL1        0.0653
     26 C          66.4359   93.1717   11.4384 C.ar    1  UNL1        0.0607
     27 C          66.2212   94.2920   10.4642 C.ar    1  UNL1        0.0148
     28 C          67.0829   94.3976    9.2410 C.ar    1  UNL1        0.0028
     29 C          68.1593   93.3830    8.9919 C.ar    1  UNL1        0.0207
     30 C          68.3739   92.2627    9.9660 C.ar    1  UNL1        0.0984
     31 N          67.5122   92.1571   11.1892 N.ar    1  UNL1       -0.2481
@<TRIPOS>BOND
     1     1     2    1
     2     2     3   ar
     3     3    13    1
     4    13    14   ar
     5    14    15   ar
     6    15    16   ar
     7    16    17   ar
     8    17    18   ar
     9     3     4   ar
    10     4     5   ar
    11     5     6   ar
    12     6     7   ar
    13     7     8   ar
    14     8     9    1
    15     8    10   ar
    16    10    11   ar
    17    11    12   ar
    18    12    19    1
    19    19    20    2
    20    19    21   am
    21    21    23    1
    22    23    24    1
    23    23    25    1
    24    25    26    1
    25    26    27   ar
    26    27    28   ar
    27    28    29   ar
    28    29    30   ar
    29    30    31   ar
    30    12     2   ar
    31    31    26   ar
    32    18    13   ar
    33    11     5   ar
    34    21    22    1
@<TRIPOS>MOLECULE
*****
 31 34 0 0 0
SMALL
GASTEIGER

@<TRIPOS>ATOM
      1 C          62.1888   89.1953   11.4491 C.3     1  UNL1        0.0328
      2 C          62.3055   87.7037   11.5562 C.ar    1  UNL1        0.0002
      3 C          61.6273   86.8240   10.5482 C.ar    1  UNL1        0.0774
      4 N          61.7440   85.3324   10.6553 N.ar    1  UNL1       -0.2457
      5 C          62.5390   84.7205   11.7705 C.ar    1  UNL1        0.0814
      6 C          62.6557   83.2289   11.8777 C.ar    1  UNL1        0.0196
      7 C          63.4506   82.6170   12.9928 C.ar    1  UNL1        0.0082
      8 C          64.1288   83.4967   14.0009 C.ar    1  UNL1        0.0347
      9 BR         64.9238   82.8848   15.1161 Br      1  UNL1       -0.0490
     10 C          64.0121   84.9883   13.8937 C.ar    1  UNL1        0.0083
     11 C          63.2172   85.6002   12.7786 C.ar    1  UNL1        0.0222
     12 C          63.1005   87.0918   12.6714 C.ar    1  UNL1        0.0523
     13 C          60.8323   87.4359    9.4330 C.ar    1  UNL1        0.0173
     14 C          60.0440   86.5597    8.5053 C.ar    1  UNL1        0.0015
     15 C          59.2490   87.1716    7.3902 C.ar    1  UNL1        0.0000
     16 C          59.2425   88.6599    7.2027 C.ar    1  UNL1        0.0000
     17 C          60.0309   89.5361    8.1304 C.ar    1  UNL1        0.0000
     18 C          60.8258   88.9242    9.2455 C.ar    1  UNL1        0.0015
     19 C          63.7787   87.9715   13.6794 C.2     1  UNL1        0.2456
     20 O          64.7876   87.3895   14.6245 O.2     1  UNL1       -0.2702
     21 N          63.4479   89.4333   13.7423 N.am    1  UNL1       -0.3021
     22 H          62.7857   89.8153   13.1220 H       1  UNL1        0.1497
     23 C          64.1261   90.3130   14.7504 C.3     1  UNL1        0.0778
     24 C          63.5216   90.4995   16.1104 C.3     1  UNL1        0.0217
     25 C          65.4090   91.0062   14.3983 C.3     1  UNL1        0.0653
     26 C          65.4678   91.9148   13.2063 C.ar    1  UNL1        0.0607
     27 C          66.2397   93.1989   13.2794 C.ar    1  UNL1        0.0148
     28 C          66.2986   94.1074   12.0873 C.ar    1  UNL1        0.0028
     29 C          65.5856   93.7319   10.8221 C.ar    1  UNL1        0.0207
     30 C          64.8137   92.4478   10.7490 C.ar    1  UNL1        0.0984
     31 N          64.7549   91.5392   11.9411 N.ar    1  UNL1       -0.2481
@<TRIPOS>BOND
     1     1     2    1
     2     2     3   ar
     3     3    13    1
     4    13    14   ar
     5    14    15   ar
     6    15    16   ar
     7    16    17   ar
     8    17    18   ar
     9     3     4   ar
    10     4     5   ar
    11     5     6   ar
    12     6     7   ar
    13     7     8   ar
    14     8     9    1
    15     8    10   ar
    16    10    11   ar
    17    11    12   ar
    18    12    19    1
    19    19    20    2
    20    19    21   am
    21    21    23    1
    22    23    24    1
    23    23    25    1
    24    25    26    1
    25    26    27   ar
    26    27    28   ar
    27    28    29   ar
    28    29    30   ar
    29    30    31   ar
    30    12     2   ar
    31    31    26   ar
    32    18    13   ar
    33    11     5   ar
    34    21    22    1
@<TRIPOS>MOLECULE
*****
 31 34 0 0 0
SMALL
GASTEIGER

@<TRIPOS>ATOM
      1 C          62.0691   89.3994   11.0055 C.3     1  UNL1        0.0328
      2 C          62.1868   87.9245   11.2521 C.ar    1  UNL1        0.0002
      3 C          61.4744   86.9551   10.3561 C.ar    1  UNL1        0.0774
      4 N          61.5920   85.4802   10.6026 N.ar    1  UNL1       -0.2457
      5 C          62.4221   84.9746   11.7452 C.ar    1  UNL1        0.0814
      6 C          62.5397   83.4998   11.9918 C.ar    1  UNL1        0.0196
      7 C          63.3697   82.9942   13.1344 C.ar    1  UNL1        0.0082
      8 C          64.0821   83.9636   14.0304 C.ar    1  UNL1        0.0347
      9 BR         64.9121   83.4580   15.1730 Br      1  UNL1       -0.0490
     10 C          63.9644   85.4385   13.7838 C.ar    1  UNL1        0.0083
     11 C          63.1344   85.9440   12.6413 C.ar    1  UNL1        0.0222
     12 C          63.0168   87.4190   12.3947 C.ar    1  UNL1        0.0523
     13 C          60.6444   87.4607    9.2134 C.ar    1  UNL1        0.0173
     14 C          60.5885   88.9306    8.9198 C.ar    1  UNL1        0.0015
     15 C          59.7585   89.4361    7.7772 C.ar    1  UNL1        0.0000
     16 C          58.9844   88.4717    6.9283 C.ar    1  UNL1        0.0000
     17 C          59.0402   87.0018    7.2220 C.ar    1  UNL1        0.0000
     18 C          59.8702   86.4963    8.3645 C.ar    1  UNL1        0.0015
     19 C          63.7291   88.3883   13.2907 C.2     1  UNL1        0.2456
     20 O          64.5474   87.8834   14.4419 O.2     1  UNL1       -0.2702
     21 N          63.6232   89.8627   13.0354 N.am    1  UNL1       -0.3021
     22 H          63.0861   90.1941   12.2798 H       1  UNL1        0.1497
     23 C          64.3355   90.8321   13.9314 C.3     1  UNL1        0.0778
     24 C          64.0510   90.8404   15.4041 C.3     1  UNL1        0.0217
     25 C          65.3325   91.7931   13.3546 C.3     1  UNL1        0.0653
     26 C          66.5598   92.1592   14.1355 C.ar    1  UNL1        0.0607
     27 C          66.4267   92.7665   15.5006 C.ar    1  UNL1        0.0148
     28 C          67.6540   93.1326   16.2815 C.ar    1  UNL1        0.0028
     29 C          69.0144   92.8914   15.6972 C.ar    1  UNL1        0.0207
     30 C          69.1474   92.2842   14.3321 C.ar    1  UNL1        0.0984
     31 N          67.9201   91.9181   13.5512 N.ar    1  UNL1       -0.2481
@<TRIPOS>BOND
     1     1     2    1
     2     2     3   ar
     3     3    13    1
     4    13    14   ar
     5    14    15   ar
     6    15    16   ar
     7    16    17   ar
     8    17    18   ar
     9     3     4   ar
    10     4     5   ar
    11     5     6   ar
    12     6     7   ar
    13     7     8   ar
    14     8     9    1
    15     8    10   ar
    16    10    11   ar
    17    11    12   ar
    18    12    19    1
    19    19    20    2
    20    19    21   am
    21    21    23    1
    22    23    24    1
    23    23    25    1
    24    25    26    1
    25    26    27   ar
    26    27    28   ar
    27    28    29   ar
    28    29    30   ar
    29    30    31   ar
    30    12     2   ar
    31    31    26   ar
    32    18    13   ar
    33    11     5   ar
    34    21    22    1
