@<TRIPOS>MOLECULE
*****
 27 30 0 0 0
SMALL
GASTEIGER

@<TRIPOS>ATOM
      1 C          65.3864   92.2482   14.3737 C.ar    1  UNL1        0.0601
      2 S          66.3211   93.0565   13.5234 S.2     1  UNL1       -0.0507
      3 C          66.0632   92.7050   12.0881 C.ar    1  UNL1        0.1629
      4 N          64.9691   91.6796   12.0514 N.ar    1  UNL1       -0.2279
      5 C          64.5508   91.3973   13.4640 C.ar    1  UNL1        0.0772
      6 N          66.7745   93.2784   10.8985 N.pl3   1  UNL1       -0.2830
      7 C          67.6660   92.4060   10.0654 C.3     1  UNL1        0.1247
      8 C          68.3773   92.9794    8.8758 C.3     1  UNL1        0.1636
      9 O          68.1971   94.4253    8.5193 O.3     1  UNL1       -0.3501
     10 C          67.3056   95.2977    9.3524 C.3     1  UNL1        0.1636
     11 C          66.5943   94.7242   10.5420 C.3     1  UNL1        0.1247
     12 O          64.0009   91.9885   16.5562 O.co2   1  UNL1       -0.5440
     13 C          65.3021   92.2845   15.8709 C.2     1  UNL1        0.0801
     14 O          66.5187   92.6169   16.6828 O.co2   1  UNL1       -0.5440
     15 C          63.4842   90.4332   13.8917 C.3     1  UNL1        0.1318
     16 C          63.2078   89.2082   13.0714 C.2     1  UNL1        0.2354
     17 O          63.8450   87.9006   13.4379 O.2     1  UNL1       -0.2741
     18 N          62.2941   89.2907   11.8846 N.am    1  UNL1       -0.2583
     19 C          61.5886   90.5220   11.3990 C.3     1  UNL1        0.1029
     20 C          60.7840   90.1486   10.1893 C.3     1  UNL1        0.0500
     21 C          60.9923   88.6865    9.9273 C.ar    1  UNL1       -0.0005
     22 C          60.4527   87.7694    8.8701 C.ar    1  UNL1        0.0318
     23 BR         59.5195   88.2996    7.8223 Br      1  UNL1       -0.0493
     24 C          60.8465   86.3220    8.8605 C.ar    1  UNL1        0.0065
     25 C          61.7797   85.7917    9.9083 C.ar    1  UNL1        0.0018
     26 C          62.3194   86.7088   10.9656 C.ar    1  UNL1        0.0146
     27 C          61.9256   88.1562   10.9751 C.ar    1  UNL1        0.0504
@<TRIPOS>UNITY_ATOM_ATTR
12 1
charge -1
@<TRIPOS>BOND
     1    12    13   ar
     2    13    14   ar
     3    13     1    1
     4     1     2   ar
     5     2     3   ar
     6     3     6    1
     7     6     7    1
     8     7     8    1
     9     8     9    1
    10     9    10    1
    11    10    11    1
    12     3     4   ar
    13     4     5   ar
    14     5    15    1
    15    15    16    1
    16    16    17    2
    17    16    18   am
    18    18    19    1
    19    19    20    1
    20    20    21    1
    21    21    22   ar
    22    22    23    1
    23    22    24   ar
    24    24    25   ar
    25    25    26   ar
    26    26    27   ar
    27     5     1   ar
    28    27    18    1
    29    11     6    1
    30    27    21   ar
@<TRIPOS>MOLECULE
*****
 27 30 0 0 0
SMALL
GASTEIGER

@<TRIPOS>ATOM
      1 C          60.8260   87.3549    9.7378 C.ar    1  UNL1        0.0601
      2 S          61.2982   85.9338    9.8247 S.2     1  UNL1       -0.0507
      3 C          62.2397   85.8283   10.9876 C.ar    1  UNL1        0.1629
      4 N          62.3495   87.1843   11.6195 N.ar    1  UNL1       -0.2279
      5 C          61.4758   88.1277   10.8471 C.ar    1  UNL1        0.0772
      6 N          62.9473   84.5852   11.4392 N.pl3   1  UNL1       -0.2830
      7 C          62.9668   84.2199   12.8939 C.3     1  UNL1        0.1247
      8 C          63.6743   82.9768   13.3455 C.3     1  UNL1        0.1636
      9 O          64.3624   82.0989   12.3425 O.3     1  UNL1       -0.3501
     10 C          64.3429   82.4644   10.8878 C.3     1  UNL1        0.1636
     11 C          63.6353   83.7075   10.4362 C.3     1  UNL1        0.1247
     12 O          60.0897   89.2778    8.1534 O.co2   1  UNL1       -0.5440
     13 C          59.8717   87.9062    8.7204 C.2     1  UNL1        0.0801
     14 O          58.6993   87.0861    8.2698 O.co2   1  UNL1       -0.5440
     15 C          61.2853   89.5877   11.1337 C.3     1  UNL1        0.1318
     16 C          62.4582   90.5213   11.0830 C.2     1  UNL1        0.2354
     17 O          62.8068   91.2189    9.8017 O.2     1  UNL1       -0.2741
     18 N          63.2826   90.7572   12.3138 N.am    1  UNL1       -0.2583
     19 C          63.0565   90.1340   13.6592 C.3     1  UNL1        0.1029
     20 C          64.1121   90.6495   14.5921 C.3     1  UNL1        0.0500
     21 C          64.9906   91.5912   13.8232 C.ar    1  UNL1       -0.0005
     22 C          66.1910   92.3967   14.2232 C.ar    1  UNL1        0.0318
     23 BR         66.7037   92.3301   15.6312 Br      1  UNL1       -0.0493
     24 C          66.8789   93.2688   13.2151 C.ar    1  UNL1        0.0065
     25 C          66.3663   93.3354   11.8070 C.ar    1  UNL1        0.0018
     26 C          65.1658   92.5299   11.4069 C.ar    1  UNL1        0.0146
     27 C          64.4779   91.6578   12.4150 C.ar    1  UNL1        0.0504
@<TRIPOS>UNITY_ATOM_ATTR
12 1
charge -1
@<TRIPOS>BOND
     1    12    13   ar
     2    13    14   ar
     3    13     1    1
     4     1     2   ar
     5     2     3   ar
     6     3     6    1
     7     6     7    1
     8     7     8    1
     9     8     9    1
    10     9    10    1
    11    10    11    1
    12     3     4   ar
    13     4     5   ar
    14     5    15    1
    15    15    16    1
    16    16    17    2
    17    16    18   am
    18    18    19    1
    19    19    20    1
    20    20    21    1
    21    21    22   ar
    22    22    23    1
    23    22    24   ar
    24    24    25   ar
    25    25    26   ar
    26    26    27   ar
    27     5     1   ar
    28    27    18    1
    29    11     6    1
    30    27    21   ar
@<TRIPOS>MOLECULE
*****
 27 30 0 0 0
SMALL
GASTEIGER

@<TRIPOS>ATOM
      1 C          65.7933   92.5817   14.3911 C.ar    1  UNL1        0.0601
      2 S          66.5034   93.5125   13.4534 S.2     1  UNL1       -0.0507
      3 C          66.0247   93.2228   12.0617 C.ar    1  UNL1        0.1629
      4 N          65.0187   92.1129   12.1392 N.ar    1  UNL1       -0.2279
      5 C          64.8757   91.7166   13.5788 C.ar    1  UNL1        0.0772
      6 N          66.4732   93.9206   10.8119 N.pl3   1  UNL1       -0.2830
      7 C          67.4074   93.2313    9.8622 C.3     1  UNL1        0.1247
      8 C          67.8559   93.9290    8.6124 C.3     1  UNL1        0.1636
      9 O          67.3702   95.3162    8.3124 O.3     1  UNL1       -0.3501
     10 C          66.4360   96.0055    9.2622 C.3     1  UNL1        0.1636
     11 C          65.9875   95.3077   10.5119 C.3     1  UNL1        0.1247
     12 O          64.7680   92.5047   16.7771 O.co2   1  UNL1       -0.5440
     13 C          65.9698   92.5256   15.8796 C.2     1  UNL1        0.0801
     14 O          67.3479   92.4906   16.4706 O.co2   1  UNL1       -0.5440
     15 C          63.9735   90.6437   14.1125 C.3     1  UNL1        0.1318
     16 C          63.4663   89.5673   13.1991 C.2     1  UNL1        0.2354
     17 O          62.7192   89.9333   11.9510 O.2     1  UNL1       -0.2741
     18 N          63.7063   88.1250   13.5340 N.am    1  UNL1       -0.2583
     19 C          64.4332   87.6090   14.7403 C.3     1  UNL1        0.1029
     20 C          64.4376   86.1106   14.6730 C.3     1  UNL1        0.0500
     21 C          63.7135   85.7003   13.4252 C.ar    1  UNL1       -0.0005
     22 C          63.4072   84.3541   12.8389 C.ar    1  UNL1        0.0318
     23 BR         63.8592   83.1091   13.5429 Br      1  UNL1       -0.0493
     24 C          62.6490   84.2527   11.5486 C.ar    1  UNL1        0.0065
     25 C          62.1970   85.4977   10.8446 C.ar    1  UNL1        0.0018
     26 C          62.5032   86.8441   11.4308 C.ar    1  UNL1        0.0146
     27 C          63.2615   86.9454   12.7211 C.ar    1  UNL1        0.0504
@<TRIPOS>UNITY_ATOM_ATTR
12 1
charge -1
@<TRIPOS>BOND
     1    12    13   ar
     2    13    14   ar
     3    13     1    1
     4     1     2   ar
     5     2     3   ar
     6     3     6    1
     7     6     7    1
     8     7     8    1
     9     8     9    1
    10     9    10    1
    11    10    11    1
    12     3     4   ar
    13     4     5   ar
    14     5    15    1
    15    15    16    1
    16    16    17    2
    17    16    18   am
    18    18    19    1
    19    19    20    1
    20    20    21    1
    21    21    22   ar
    22    22    23    1
    23    22    24   ar
    24    24    25   ar
    25    25    26   ar
    26    26    27   ar
    27     5     1   ar
    28    27    18    1
    29    11     6    1
    30    27    21   ar
@<TRIPOS>MOLECULE
*****
 27 30 0 0 0
SMALL
GASTEIGER

@<TRIPOS>ATOM
      1 C          64.4402   91.3525   13.8889 C.ar    1  UNL1        0.0601
      2 S          65.5191   92.2805   13.4149 S.2     1  UNL1       -0.0507
      3 C          65.4125   92.3916   11.9228 C.ar    1  UNL1        0.1629
      4 N          64.2678   91.5321   11.4746 N.ar    1  UNL1       -0.2279
      5 C          63.6668   90.8900   12.6898 C.ar    1  UNL1        0.0772
      6 N          66.2957   93.2171   11.0348 N.pl3   1  UNL1       -0.2830
      7 C          66.1288   94.7069   10.9870 C.3     1  UNL1        0.1247
      8 C          67.0120   95.5324   10.0990 C.3     1  UNL1        0.1636
      9 O          68.0621   94.8680    9.2588 O.3     1  UNL1       -0.3501
     10 C          68.2289   93.3781    9.3066 C.3     1  UNL1        0.1636
     11 C          67.3457   92.5527   10.1946 C.3     1  UNL1        0.1247
     12 O          64.3771   91.9532   16.4158 O.co2   1  UNL1       -0.5440
     13 C          64.1803   90.9565   15.3122 C.2     1  UNL1        0.0801
     14 O          63.7237   89.5640   15.6318 O.co2   1  UNL1       -0.5440
     15 C          62.4978   89.9502   12.7033 C.3     1  UNL1        0.1318
     16 C          61.6343   89.8097   11.4849 C.2     1  UNL1        0.2354
     17 O          60.7374   90.9371   11.0671 O.2     1  UNL1       -0.2741
     18 N          61.6677   88.5416   10.6842 N.am    1  UNL1       -0.2583
     19 C          62.5095   87.3355   10.9778 C.3     1  UNL1        0.1029
     20 C          62.2272   86.3056    9.9244 C.3     1  UNL1        0.0500
     21 C          61.2109   86.8753    8.9797 C.ar    1  UNL1       -0.0005
     22 C          60.5556   86.3142    7.7526 C.ar    1  UNL1        0.0318
     23 BR         60.9014   84.9323    7.2830 Br      1  UNL1       -0.0493
     24 C          59.5546   87.1352    6.9950 C.ar    1  UNL1        0.0065
     25 C          59.2087   88.5172    7.4646 C.ar    1  UNL1        0.0018
     26 C          59.8640   89.0783    8.6918 C.ar    1  UNL1        0.0146
     27 C          60.8651   88.2573    9.4493 C.ar    1  UNL1        0.0504
@<TRIPOS>UNITY_ATOM_ATTR
12 1
charge -1
@<TRIPOS>BOND
     1    12    13   ar
     2    13    14   ar
     3    13     1    1
     4     1     2   ar
     5     2     3   ar
     6     3     6    1
     7     6     7    1
     8     7     8    1
     9     8     9    1
    10     9    10    1
    11    10    11    1
    12     3     4   ar
    13     4     5   ar
    14     5    15    1
    15    15    16    1
    16    16    17    2
    17    16    18   am
    18    18    19    1
    19    19    20    1
    20    20    21    1
    21    21    22   ar
    22    22    23    1
    23    22    24   ar
    24    24    25   ar
    25    25    26   ar
    26    26    27   ar
    27     5     1   ar
    28    27    18    1
    29    11     6    1
    30    27    21   ar
@<TRIPOS>MOLECULE
*****
 27 30 0 0 0
SMALL
GASTEIGER

@<TRIPOS>ATOM
      1 C          61.7546   86.3760   10.1984 C.ar    1  UNL1        0.0601
      2 S          61.9902   84.9432   10.5746 S.2     1  UNL1       -0.0507
      3 C          62.5919   84.9175   11.9484 C.ar    1  UNL1        0.1629
      4 N          62.7282   86.3345   12.4212 N.ar    1  UNL1       -0.2279
      5 C          62.2108   87.2358   11.3397 C.ar    1  UNL1        0.0772
      6 N          62.9878   83.6903   12.7148 N.pl3   1  UNL1       -0.2830
      7 C          63.5044   83.8161   14.1173 C.3     1  UNL1        0.1247
      8 C          63.9002   82.5889   14.8836 C.3     1  UNL1        0.1636
      9 O          63.7794   81.2359   14.2474 O.3     1  UNL1       -0.3501
     10 C          63.2628   81.1102   12.8448 C.3     1  UNL1        0.1636
     11 C          62.8670   82.3373   12.0785 C.3     1  UNL1        0.1247
     12 O          61.1894   85.9831    7.6931 O.co2   1  UNL1       -0.5440
     13 C          61.1662   86.8633    8.9075 C.2     1  UNL1        0.0801
     14 O          60.5547   88.2308    8.8311 O.co2   1  UNL1       -0.5440
     15 C          62.1586   88.7341   11.3905 C.3     1  UNL1        0.1318
     16 C          63.0703   89.4853   12.3149 C.2     1  UNL1        0.2354
     17 O          63.2932   88.9913   13.7135 O.2     1  UNL1       -0.2741
     18 N          63.7589   90.7307   11.8406 N.am    1  UNL1       -0.2583
     19 C          63.6338   91.3425   10.4769 C.3     1  UNL1        0.1029
     20 C          64.4911   92.5728   10.4403 C.3     1  UNL1        0.0500
     21 C          65.1462   92.7213   11.7815 C.ar    1  UNL1       -0.0005
     22 C          66.0963   93.7462   12.3265 C.ar    1  UNL1        0.0318
     23 BR         66.5488   94.8846   11.4611 Br      1  UNL1       -0.0493
     24 C          66.5938   93.6325   13.7370 C.ar    1  UNL1        0.0065
     25 C          66.1413   92.4940   14.6025 C.ar    1  UNL1        0.0018
     26 C          65.1912   91.4691   14.0575 C.ar    1  UNL1        0.0146
     27 C          64.6936   91.5828   12.6469 C.ar    1  UNL1        0.0504
@<TRIPOS>UNITY_ATOM_ATTR
12 1
charge -1
@<TRIPOS>BOND
     1    12    13   ar
     2    13    14   ar
     3    13     1    1
     4     1     2   ar
     5     2     3   ar
     6     3     6    1
     7     6     7    1
     8     7     8    1
     9     8     9    1
    10     9    10    1
    11    10    11    1
    12     3     4   ar
    13     4     5   ar
    14     5    15    1
    15    15    16    1
    16    16    17    2
    17    16    18   am
    18    18    19    1
    19    19    20    1
    20    20    21    1
    21    21    22   ar
    22    22    23    1
    23    22    24   ar
    24    24    25   ar
    25    25    26   ar
    26    26    27   ar
    27     5     1   ar
    28    27    18    1
    29    11     6    1
    30    27    21   ar
@<TRIPOS>MOLECULE
*****
 27 30 0 0 0
SMALL
GASTEIGER

@<TRIPOS>ATOM
      1 C          65.3675   92.3137   14.0256 C.ar    1  UNL1        0.0601
      2 S          66.2591   93.2354   13.2474 S.2     1  UNL1       -0.0507
      3 C          65.9679   93.0401   11.7889 C.ar    1  UNL1        0.1629
      4 N          64.8964   91.9977   11.6657 N.ar    1  UNL1       -0.2279
      5 C          64.5254   91.5488   13.0481 C.ar    1  UNL1        0.0772
      6 N          66.6317   93.7607   10.6531 N.pl3   1  UNL1       -0.2830
      7 C          66.4133   95.2332   10.4692 C.3     1  UNL1        0.1247
      8 C          67.0771   95.9538    9.3334 C.3     1  UNL1        0.1636
      9 O          67.9593   95.2018    8.3814 O.3     1  UNL1       -0.3501
     10 C          68.1776   93.7292    8.5653 C.3     1  UNL1        0.1636
     11 C          67.5138   93.0087    9.7011 C.3     1  UNL1        0.1247
     12 O          66.5881   92.3073   16.3191 O.co2   1  UNL1       -0.5440
     13 C          65.3256   92.1804   15.5191 C.2     1  UNL1        0.0801
     14 O          64.0212   91.9203   16.2125 O.co2   1  UNL1       -0.5440
     15 C          63.4933   90.5161   13.3924 C.3     1  UNL1        0.1318
     16 C          63.9200   89.1503   13.8423 C.2     1  UNL1        0.2354
     17 O          64.7728   88.9962   15.0666 O.2     1  UNL1       -0.2741
     18 N          63.4937   87.9384   13.0678 N.am    1  UNL1       -0.2583
     19 C          62.6456   87.9360   11.8307 C.3     1  UNL1        0.1029
     20 C          62.4686   86.5123   11.3929 C.3     1  UNL1        0.0500
     21 C          63.2072   85.6348   12.3594 C.ar    1  UNL1       -0.0005
     22 C          63.3848   84.1470   12.4307 C.ar    1  UNL1        0.0318
     23 BR         62.7512   83.2656   11.3955 Br      1  UNL1       -0.0493
     24 C          64.1960   83.5407   13.5372 C.ar    1  UNL1        0.0065
     25 C          64.8296   84.4220   14.5724 C.ar    1  UNL1        0.0018
     26 C          64.6521   85.9099   14.5012 C.ar    1  UNL1        0.0146
     27 C          63.8409   86.5162   13.3947 C.ar    1  UNL1        0.0504
@<TRIPOS>UNITY_ATOM_ATTR
12 1
charge -1
@<TRIPOS>BOND
     1    12    13   ar
     2    13    14   ar
     3    13     1    1
     4     1     2   ar
     5     2     3   ar
     6     3     6    1
     7     6     7    1
     8     7     8    1
     9     8     9    1
    10     9    10    1
    11    10    11    1
    12     3     4   ar
    13     4     5   ar
    14     5    15    1
    15    15    16    1
    16    16    17    2
    17    16    18   am
    18    18    19    1
    19    19    20    1
    20    20    21    1
    21    21    22   ar
    22    22    23    1
    23    22    24   ar
    24    24    25   ar
    25    25    26   ar
    26    26    27   ar
    27     5     1   ar
    28    27    18    1
    29    11     6    1
    30    27    21   ar
@<TRIPOS>MOLECULE
*****
 27 30 0 0 0
SMALL
GASTEIGER

@<TRIPOS>ATOM
      1 C          63.0532   88.9923   12.6588 C.ar    1  UNL1        0.0601
      2 S          62.1851   89.4114   11.5096 S.2     1  UNL1       -0.0507
      3 C          61.7461   88.1737   10.7847 C.ar    1  UNL1        0.1629
      4 N          62.3429   86.9896   11.4860 N.ar    1  UNL1       -0.2279
      5 C          63.1508   87.4956   12.6442 C.ar    1  UNL1        0.0772
      6 N          60.8651   88.1282    9.5717 N.pl3   1  UNL1       -0.2830
      7 C          60.4743   89.4006    8.8803 C.3     1  UNL1        0.1247
      8 C          59.5932   89.3550    7.6672 C.3     1  UNL1        0.1636
      9 O          59.1029   88.0369    7.1455 O.3     1  UNL1       -0.3501
     10 C          59.4937   86.7644    7.8369 C.3     1  UNL1        0.1636
     11 C          60.3748   86.8101    9.0500 C.3     1  UNL1        0.1247
     12 O          64.8543   90.7782   13.2218 O.co2   1  UNL1       -0.5440
     13 C          63.7087   89.9090   13.6488 C.2     1  UNL1        0.0801
     14 O          63.2187   89.9564   15.0657 O.co2   1  UNL1       -0.5440
     15 C          63.9209   86.6527   13.6171 C.3     1  UNL1        0.1318
     16 C          63.4344   85.2777   13.9673 C.2     1  UNL1        0.2354
     17 O          62.9397   84.9875   15.3533 O.2     1  UNL1       -0.2741
     18 N          63.4426   84.1928   12.9314 N.am    1  UNL1       -0.2583
     19 C          63.9056   84.3329   11.5116 C.3     1  UNL1        0.1029
     20 C          63.7383   83.0040   10.8363 C.3     1  UNL1        0.0500
     21 C          63.1718   82.0426   11.8386 C.ar    1  UNL1       -0.0005
     22 C          62.7988   80.5931   11.7396 C.ar    1  UNL1        0.0318
     23 BR         62.9816   79.8584   10.4448 Br      1  UNL1       -0.0493
     24 C          62.2430   79.8783   12.9355 C.ar    1  UNL1        0.0065
     25 C          62.0602   80.6130   14.2304 C.ar    1  UNL1        0.0018
     26 C          62.4332   82.0626   14.3295 C.ar    1  UNL1        0.0146
     27 C          62.9890   82.7774   13.1336 C.ar    1  UNL1        0.0504
@<TRIPOS>UNITY_ATOM_ATTR
12 1
charge -1
@<TRIPOS>BOND
     1    12    13   ar
     2    13    14   ar
     3    13     1    1
     4     1     2   ar
     5     2     3   ar
     6     3     6    1
     7     6     7    1
     8     7     8    1
     9     8     9    1
    10     9    10    1
    11    10    11    1
    12     3     4   ar
    13     4     5   ar
    14     5    15    1
    15    15    16    1
    16    16    17    2
    17    16    18   am
    18    18    19    1
    19    19    20    1
    20    20    21    1
    21    21    22   ar
    22    22    23    1
    23    22    24   ar
    24    24    25   ar
    25    25    26   ar
    26    26    27   ar
    27     5     1   ar
    28    27    18    1
    29    11     6    1
    30    27    21   ar
@<TRIPOS>MOLECULE
*****
 27 30 0 0 0
SMALL
GASTEIGER

@<TRIPOS>ATOM
      1 C          61.1892   87.6302   10.0172 C.ar    1  UNL1        0.0601
      2 S          61.3996   86.1452   10.0329 S.2     1  UNL1       -0.0507
      3 C          62.3482   85.8231   11.1493 C.ar    1  UNL1        0.1629
      4 N          62.7240   87.1092   11.8237 N.ar    1  UNL1       -0.2279
      5 C          62.0077   88.2260   11.1241 C.ar    1  UNL1        0.0772
      6 N          62.8354   84.4552   11.5253 N.pl3   1  UNL1       -0.2830
      7 C          62.6061   83.9324   12.9123 C.3     1  UNL1        0.1247
      8 C          63.0933   82.5644   13.2884 C.3     1  UNL1        0.1636
      9 O          63.8099   81.7193   12.2772 O.3     1  UNL1       -0.3501
     10 C          64.0392   82.2422   10.8901 C.3     1  UNL1        0.1636
     11 C          63.5520   83.6101   10.5142 C.3     1  UNL1        0.1247
     12 O          59.9254   89.8040    9.3633 O.co2   1  UNL1       -0.5440
     13 C          60.3139   88.3867    9.0625 C.2     1  UNL1        0.0801
     14 O          59.8271   87.7259    7.8069 O.co2   1  UNL1       -0.5440
     15 C          62.0946   89.6829   11.4704 C.3     1  UNL1        0.1318
     16 C          62.5741   90.1037   12.8280 C.2     1  UNL1        0.2354
     17 O          61.8201   89.6814   14.0540 O.2     1  UNL1       -0.2741
     18 N          63.8077   90.9469   12.9595 N.am    1  UNL1       -0.2583
     19 C          64.6610   91.4432   11.8302 C.3     1  UNL1        0.1029
     20 C          65.7852   92.2449   12.4163 C.3     1  UNL1        0.0500
     21 C          65.6268   92.2441   13.9079 C.ar    1  UNL1       -0.0005
     22 C          66.4374   92.8701   15.0037 C.ar    1  UNL1        0.0318
     23 BR         67.6595   93.6723   14.6680 Br      1  UNL1       -0.0493
     24 C          66.0259   92.6939   16.4354 C.ar    1  UNL1        0.0065
     25 C          64.8037   91.8917   16.7712 C.ar    1  UNL1        0.0018
     26 C          63.9930   91.2657   15.6753 C.ar    1  UNL1        0.0146
     27 C          64.4045   91.4418   14.2436 C.ar    1  UNL1        0.0504
@<TRIPOS>UNITY_ATOM_ATTR
12 1
charge -1
@<TRIPOS>BOND
     1    12    13   ar
     2    13    14   ar
     3    13     1    1
     4     1     2   ar
     5     2     3   ar
     6     3     6    1
     7     6     7    1
     8     7     8    1
     9     8     9    1
    10     9    10    1
    11    10    11    1
    12     3     4   ar
    13     4     5   ar
    14     5    15    1
    15    15    16    1
    16    16    17    2
    17    16    18   am
    18    18    19    1
    19    19    20    1
    20    20    21    1
    21    21    22   ar
    22    22    23    1
    23    22    24   ar
    24    24    25   ar
    25    25    26   ar
    26    26    27   ar
    27     5     1   ar
    28    27    18    1
    29    11     6    1
    30    27    21   ar
@<TRIPOS>MOLECULE
*****
 27 30 0 0 0
SMALL
GASTEIGER

@<TRIPOS>ATOM
      1 C          62.8183   90.9224   10.9196 C.ar    1  UNL1        0.0601
      2 S          63.7210   91.7608   10.0639 S.2     1  UNL1       -0.0507
      3 C          64.9278   92.1221   10.8782 C.ar    1  UNL1        0.1629
      4 N          64.7709   91.5070   12.2373 N.ar    1  UNL1       -0.2279
      5 C          63.4672   90.7656   12.2628 C.ar    1  UNL1        0.0772
      6 N          66.0877   92.9526   10.4149 N.pl3   1  UNL1       -0.2830
      7 C          65.9938   94.4494   10.4348 C.3     1  UNL1        0.1247
      8 C          67.1537   95.2800    9.9714 C.3     1  UNL1        0.1636
      9 O          68.4077   94.6136    9.4881 O.3     1  UNL1       -0.3501
     10 C          68.5015   93.1166    9.4682 C.3     1  UNL1        0.1636
     11 C          67.3416   92.2862    9.9315 C.3     1  UNL1        0.1247
     12 O          61.4197   89.4322    9.3153 O.co2   1  UNL1       -0.5440
     13 C          61.4984   90.3427   10.5049 C.2     1  UNL1        0.0801
     14 O          60.2574   90.6735   11.2796 O.co2   1  UNL1       -0.5440
     15 C          62.9102   90.0015   13.4272 C.3     1  UNL1        0.1318
     16 C          63.5291   88.6969   13.8334 C.2     1  UNL1        0.2354
     17 O          64.4592   88.6417   15.0088 O.2     1  UNL1       -0.2741
     18 N          63.2178   87.4474   13.0639 N.am    1  UNL1       -0.2583
     19 C          62.3113   87.3481   11.8730 C.3     1  UNL1        0.1029
     20 C          62.2917   85.9171   11.4235 C.3     1  UNL1        0.0500
     21 C          63.1860   85.1321   12.3366 C.ar    1  UNL1       -0.0005
     22 C          63.5532   83.6782   12.3758 C.ar    1  UNL1        0.0318
     23 BR         62.9808   82.7325   11.3620 Br      1  UNL1       -0.0493
     24 C          64.4927   83.1701   13.4290 C.ar    1  UNL1        0.0065
     25 C          65.0651   84.1158   14.4429 C.ar    1  UNL1        0.0018
     26 C          64.6980   85.5697   14.4036 C.ar    1  UNL1        0.0146
     27 C          63.7584   86.0779   13.3505 C.ar    1  UNL1        0.0504
@<TRIPOS>UNITY_ATOM_ATTR
12 1
charge -1
@<TRIPOS>BOND
     1    12    13   ar
     2    13    14   ar
     3    13     1    1
     4     1     2   ar
     5     2     3   ar
     6     3     6    1
     7     6     7    1
     8     7     8    1
     9     8     9    1
    10     9    10    1
    11    10    11    1
    12     3     4   ar
    13     4     5   ar
    14     5    15    1
    15    15    16    1
    16    16    17    2
    17    16    18   am
    18    18    19    1
    19    19    20    1
    20    20    21    1
    21    21    22   ar
    22    22    23    1
    23    22    24   ar
    24    24    25   ar
    25    25    26   ar
    26    26    27   ar
    27     5     1   ar
    28    27    18    1
    29    11     6    1
    30    27    21   ar
