@<TRIPOS>MOLECULE
*****
 32 35 0 0 0
SMALL
GASTEIGER

@<TRIPOS>ATOM
      1 C          65.1168   90.6641   15.3070 C.3     1  UNL1        0.1383
      2 N          64.5295   90.4761   13.9395 N.ar    1  UNL1       -0.2455
      3 C          63.7784   89.2197   13.6122 C.ar    1  UNL1        0.2816
      4 O          63.6145   88.1513   14.6522 O.2     1  UNL1       -0.2652
      5 C          63.1912   89.0316   12.2448 C.ar    1  UNL1        0.1342
      6 C          63.3551   90.1000   11.2047 C.ar    1  UNL1        0.0871
      7 C          62.6708   89.6371    9.9527 C.ar    1  UNL1        0.0515
      8 C          62.0841   88.2825   10.2190 C.ar    1  UNL1        0.1142
      9 N          62.4056   87.9084   11.6356 N.ar    1  UNL1       -0.3068
     10 N          64.1062   91.3565   11.5321 N.ar    1  UNL1       -0.2776
     11 C          64.2702   92.4249   10.4921 C.3     1  UNL1        0.1351
     12 C          64.6934   91.5444   12.8996 C.ar    1  UNL1        0.3339
     13 O          65.4446   92.8009   13.2269 O.2     1  UNL1       -0.2462
     14 N          61.3113   87.4486    9.2406 N.pl3   1  UNL1       -0.2932
     15 C          59.8417   87.6824    9.0521 C.3     1  UNL1        0.0922
     16 C          59.0691   86.8483    8.0736 C.3     1  UNL1        0.0228
     17 C          59.7660   85.7806    7.2836 C.3     1  UNL1        0.0177
     18 C          61.2356   85.5468    7.4720 C.3     1  UNL1        0.0575
     19 C          62.6016   84.9516    7.2999 C.3     1  UNL1        0.0173
     20 N          60.9373   84.5061    6.4338 N.3     1  UNL1       -0.3219
     21 C          62.0083   86.3808    8.4505 C.3     1  UNL1        0.1062
     22 H          59.9467   84.5400    6.1931 H       1  UNL1        0.1188
     23 H          61.1663   83.5829    6.8021 H       1  UNL1        0.1188
     24 C          62.0109   86.6345   12.3223 C.3     1  UNL1        0.1350
     25 C          62.8548   85.4046   12.1639 C.ar    1  UNL1        0.0132
     26 C          63.0672   84.8108   10.8029 C.ar    1  UNL1        0.0281
     27 C          63.9110   83.5809   10.6446 C.ar    1  UNL1        0.1399
     28 F          64.1234   82.9872    9.2835 F       1  UNL1       -0.2042
     29 C          64.5425   82.9446   11.8473 C.ar    1  UNL1        0.0305
     30 C          64.3302   83.5383   13.2082 C.ar    1  UNL1        0.0134
     31 C          63.4863   84.7683   13.3667 C.ar    1  UNL1        0.0557
     32 CL         63.2739   85.3620   14.7276 Cl      1  UNL1       -0.0825
@<TRIPOS>BOND
     1     1     2    1
     2     2     3   ar
     3     3     4    2
     4     3     5   ar
     5     5     6   ar
     6     6     7   ar
     7     7     8   ar
     8     8    14    1
     9    14    15    1
    10    15    16    1
    11    16    17    1
    12    17    18    1
    13    18    19    1
    14    18    20    1
    15    18    21    1
    16     8     9   ar
    17     9    24    1
    18    24    25    1
    19    25    26   ar
    20    26    27   ar
    21    27    28    1
    22    27    29   ar
    23    29    30   ar
    24    30    31   ar
    25    31    32    1
    26     6    10   ar
    27    10    11    1
    28    10    12   ar
    29    12    13    2
    30    12     2   ar
    31     9     5   ar
    32    31    25   ar
    33    21    14    1
    34    20    22    1
    35    20    23    1
@<TRIPOS>MOLECULE
*****
 32 35 0 0 0
SMALL
GASTEIGER

@<TRIPOS>ATOM
      1 C          65.2108   93.6921    9.9975 C.3     1  UNL1        0.1383
      2 N          65.2134   92.9430   11.2971 N.ar    1  UNL1       -0.2455
      3 C          64.5512   91.6004   11.3901 C.ar    1  UNL1        0.2816
      4 O          63.8864   91.0068   10.1836 O.2     1  UNL1       -0.2652
      5 C          64.5538   90.8513   12.6896 C.ar    1  UNL1        0.1342
      6 C          65.2186   91.4448   13.8962 C.ar    1  UNL1        0.0871
      7 C          65.0619   90.4797   15.0337 C.ar    1  UNL1        0.0515
      8 C          64.3002   89.2896   14.5302 C.ar    1  UNL1        0.1142
      9 N          63.9862   89.5193   13.0815 N.ar    1  UNL1       -0.3068
     10 N          65.8809   92.7875   13.8032 N.ar    1  UNL1       -0.2776
     11 C          66.5457   93.3812   15.0097 C.3     1  UNL1        0.1351
     12 C          65.8782   93.5366   12.5035 C.ar    1  UNL1        0.3339
     13 O          66.5405   94.8794   12.4105 O.2     1  UNL1       -0.2462
     14 N          63.9194   88.0819   15.3342 N.pl3   1  UNL1       -0.2932
     15 C          63.1274   88.2415   16.5980 C.3     1  UNL1        0.0922
     16 C          62.7465   87.0337   17.4019 C.3     1  UNL1        0.0228
     17 C          63.1577   85.6664   16.9421 C.3     1  UNL1        0.0177
     18 C          63.9498   85.5068   15.6783 C.3     1  UNL1        0.0575
     19 C          64.7000   84.8484   14.5587 C.3     1  UNL1        0.0173
     20 N          63.8295   84.0705   16.0934 N.3     1  UNL1       -0.3219
     21 C          64.3306   86.7146   14.8743 C.3     1  UNL1        0.1062
     22 H          63.3002   84.0111   16.9633 H       1  UNL1        0.1188
     23 H          64.7605   83.6782   16.2344 H       1  UNL1        0.1188
     24 C          63.2362   88.5815   12.1825 C.3     1  UNL1        0.1350
     25 C          62.0386   89.0687   11.4221 C.ar    1  UNL1        0.0132
     26 C          61.1344   90.1009   12.0280 C.ar    1  UNL1        0.0281
     27 C          59.9368   90.5881   11.2675 C.ar    1  UNL1        0.1399
     28 F          59.0327   91.6204   11.8734 F       1  UNL1       -0.2042
     29 C          59.6432   90.0431    9.9012 C.ar    1  UNL1        0.0305
     30 C          60.5473   89.0109    9.2953 C.ar    1  UNL1        0.0134
     31 C          61.7450   88.5237   10.0557 C.ar    1  UNL1        0.0557
     32 CL         62.6491   87.4915    9.4499 Cl      1  UNL1       -0.0825
@<TRIPOS>BOND
     1     1     2    1
     2     2     3   ar
     3     3     4    2
     4     3     5   ar
     5     5     6   ar
     6     6     7   ar
     7     7     8   ar
     8     8    14    1
     9    14    15    1
    10    15    16    1
    11    16    17    1
    12    17    18    1
    13    18    19    1
    14    18    20    1
    15    18    21    1
    16     8     9   ar
    17     9    24    1
    18    24    25    1
    19    25    26   ar
    20    26    27   ar
    21    27    28    1
    22    27    29   ar
    23    29    30   ar
    24    30    31   ar
    25    31    32    1
    26     6    10   ar
    27    10    11    1
    28    10    12   ar
    29    12    13    2
    30    12     2   ar
    31     9     5   ar
    32    31    25   ar
    33    21    14    1
    34    20    22    1
    35    20    23    1
@<TRIPOS>MOLECULE
*****
 32 35 0 0 0
SMALL
GASTEIGER

@<TRIPOS>ATOM
      1 C          62.2223   90.9732   10.9746 C.3     1  UNL1        0.1383
      2 N          62.0711   89.4823   10.9084 N.ar    1  UNL1       -0.2455
      3 C          62.8280   88.6086   11.8642 C.ar    1  UNL1        0.2816
      4 O          63.7361   89.2257   12.8863 O.2     1  UNL1       -0.2652
      5 C          62.6769   87.1177   11.7981 C.ar    1  UNL1        0.1342
      6 C          61.7688   86.5005   10.7760 C.ar    1  UNL1        0.0871
      7 C          61.8208   85.0114   10.9487 C.ar    1  UNL1        0.0515
      8 C          62.7610   84.7082   12.0774 C.ar    1  UNL1        0.1142
      9 N          63.2901   86.0100   12.6024 N.ar    1  UNL1       -0.3068
     10 N          61.0119   87.3742    9.8202 N.ar    1  UNL1       -0.2776
     11 C          60.1038   86.7571    8.7981 C.3     1  UNL1        0.1351
     12 C          61.1631   88.8651    9.8864 C.ar    1  UNL1        0.3339
     13 O          60.4062   89.7389    8.9305 O.2     1  UNL1       -0.2462
     14 N          63.1108   83.3430   12.5911 N.pl3   1  UNL1       -0.2932
     15 C          64.5147   82.8304   12.4631 C.3     1  UNL1        0.0922
     16 C          64.8643   81.4652   12.9768 C.3     1  UNL1        0.0228
     17 C          63.8102   80.6125   13.6185 C.3     1  UNL1        0.0177
     18 C          62.4064   81.1251   13.7466 C.3     1  UNL1        0.0575
     19 C          60.9481   81.1688   14.0950 C.3     1  UNL1        0.0173
     20 N          62.2496   79.7751   14.3813 N.3     1  UNL1       -0.3219
     21 C          62.0567   82.4904   13.2329 C.3     1  UNL1        0.1062
     22 H          63.1457   79.2880   14.3700 H       1  UNL1        0.1188
     23 H          61.5610   79.2323   13.8602 H       1  UNL1        0.1188
     24 C          64.2618   86.1750   13.7331 C.3     1  UNL1        0.1350
     25 C          63.7756   86.6187   15.0810 C.ar    1  UNL1        0.0132
     26 C          63.7507   88.0782   15.4262 C.ar    1  UNL1        0.0281
     27 C          63.2646   88.5219   16.7741 C.ar    1  UNL1        0.1399
     28 F          63.2396   89.9814   17.1194 F       1  UNL1       -0.2042
     29 C          62.8033   87.5060   17.7768 C.ar    1  UNL1        0.0305
     30 C          62.8282   86.0466   17.4316 C.ar    1  UNL1        0.0134
     31 C          63.3144   85.6028   16.0837 C.ar    1  UNL1        0.0557
     32 CL         63.3393   84.1434   15.7385 Cl      1  UNL1       -0.0825
@<TRIPOS>BOND
     1     1     2    1
     2     2     3   ar
     3     3     4    2
     4     3     5   ar
     5     5     6   ar
     6     6     7   ar
     7     7     8   ar
     8     8    14    1
     9    14    15    1
    10    15    16    1
    11    16    17    1
    12    17    18    1
    13    18    19    1
    14    18    20    1
    15    18    21    1
    16     8     9   ar
    17     9    24    1
    18    24    25    1
    19    25    26   ar
    20    26    27   ar
    21    27    28    1
    22    27    29   ar
    23    29    30   ar
    24    30    31   ar
    25    31    32    1
    26     6    10   ar
    27    10    11    1
    28    10    12   ar
    29    12    13    2
    30    12     2   ar
    31     9     5   ar
    32    31    25   ar
    33    21    14    1
    34    20    22    1
    35    20    23    1
@<TRIPOS>MOLECULE
*****
 32 35 0 0 0
SMALL
GASTEIGER

@<TRIPOS>ATOM
      1 C          61.2809   85.6112   10.2783 C.3     1  UNL1        0.1383
      2 N          61.7577   86.9517   10.7537 N.ar    1  UNL1       -0.2455
      3 C          62.6869   87.0441   11.9275 C.ar    1  UNL1        0.2816
      4 O          63.1394   85.7961   12.6260 O.2     1  UNL1       -0.2652
      5 C          63.1637   88.3845   12.4029 C.ar    1  UNL1        0.1342
      6 C          62.7113   89.6325   11.7045 C.ar    1  UNL1        0.0871
      7 C          63.3435   90.8049   12.3942 C.ar    1  UNL1        0.0515
      8 C          64.1867   90.2815   13.5189 C.ar    1  UNL1        0.1142
      9 N          64.0756   88.7856   13.5243 N.ar    1  UNL1       -0.3068
     10 N          61.7820   89.5401   10.5306 N.ar    1  UNL1       -0.2776
     11 C          61.3295   90.7880    9.8321 C.3     1  UNL1        0.1351
     12 C          61.3052   88.1996   10.0552 C.ar    1  UNL1        0.3339
     13 O          60.3759   88.1072    8.8813 O.2     1  UNL1       -0.2462
     14 N          64.9985   91.1087   14.4712 N.pl3   1  UNL1       -0.2932
     15 C          64.3773   91.6218   15.7364 C.3     1  UNL1        0.0922
     16 C          65.1892   92.4491   16.6886 C.3     1  UNL1        0.0228
     17 C          66.6221   92.7632   16.3756 C.3     1  UNL1        0.0177
     18 C          67.2433   92.2500   15.1103 C.3     1  UNL1        0.0575
     19 C          68.2702   91.9932   14.0476 C.3     1  UNL1        0.0173
     20 N          68.4117   92.9880   15.6934 N.3     1  UNL1       -0.3219
     21 C          66.4314   91.4228   14.1581 C.3     1  UNL1        0.1062
     22 H          68.1401   93.4059   16.5833 H       1  UNL1        0.1188
     23 H          68.7063   93.7218   15.0490 H       1  UNL1        0.1188
     24 C          64.7567   87.8544   14.4829 C.3     1  UNL1        0.1350
     25 C          63.9400   86.9748   15.3824 C.ar    1  UNL1        0.0132
     26 C          63.8582   85.5006   15.1174 C.ar    1  UNL1        0.0281
     27 C          63.0414   84.6211   16.0169 C.ar    1  UNL1        0.1399
     28 F          62.9596   83.1469   15.7519 F       1  UNL1       -0.2042
     29 C          62.3063   85.2156   17.1815 C.ar    1  UNL1        0.0305
     30 C          62.3881   86.6897   17.4466 C.ar    1  UNL1        0.0134
     31 C          63.2049   87.5694   16.5471 C.ar    1  UNL1        0.0557
     32 CL         63.2867   89.0434   16.8121 Cl      1  UNL1       -0.0825
@<TRIPOS>BOND
     1     1     2    1
     2     2     3   ar
     3     3     4    2
     4     3     5   ar
     5     5     6   ar
     6     6     7   ar
     7     7     8   ar
     8     8    14    1
     9    14    15    1
    10    15    16    1
    11    16    17    1
    12    17    18    1
    13    18    19    1
    14    18    20    1
    15    18    21    1
    16     8     9   ar
    17     9    24    1
    18    24    25    1
    19    25    26   ar
    20    26    27   ar
    21    27    28    1
    22    27    29   ar
    23    29    30   ar
    24    30    31   ar
    25    31    32    1
    26     6    10   ar
    27    10    11    1
    28    10    12   ar
    29    12    13    2
    30    12     2   ar
    31     9     5   ar
    32    31    25   ar
    33    21    14    1
    34    20    22    1
    35    20    23    1
@<TRIPOS>MOLECULE
*****
 32 35 0 0 0
SMALL
GASTEIGER

@<TRIPOS>ATOM
      1 C          65.9635   92.1348   15.5346 C.3     1  UNL1        0.1383
      2 N          65.3816   91.8466   14.1824 N.ar    1  UNL1       -0.2455
      3 C          64.4658   90.6735   13.9947 C.ar    1  UNL1        0.2816
      4 O          64.1320   89.7887   15.1590 O.2     1  UNL1       -0.2652
      5 C          63.8839   90.3852   12.6426 C.ar    1  UNL1        0.1342
      6 C          64.2177   91.2699   11.4782 C.ar    1  UNL1        0.0871
      7 C          63.4985   90.7409   10.2728 C.ar    1  UNL1        0.0515
      8 C          62.7202   89.5292   10.6922 C.ar    1  UNL1        0.1142
      9 N          62.9584   89.3093   12.1568 N.ar    1  UNL1       -0.3068
     10 N          65.1334   92.4430   11.6659 N.ar    1  UNL1       -0.2776
     11 C          65.4673   93.3279   10.5016 C.3     1  UNL1        0.1351
     12 C          65.7154   92.7313   13.0181 C.ar    1  UNL1        0.3339
     13 O          66.6312   93.9045   13.2059 O.2     1  UNL1       -0.2462
     14 N          61.8555   88.6855    9.8032 N.pl3   1  UNL1       -0.2932
     15 C          60.4660   89.1358    9.4618 C.3     1  UNL1        0.0922
     16 C          59.6014   88.2919    8.5728 C.3     1  UNL1        0.0228
     17 C          60.1261   86.9979    8.0251 C.3     1  UNL1        0.0177
     18 C          61.5156   86.5476    8.3665 C.3     1  UNL1        0.0575
     19 C          62.7542   85.7023    8.4036 C.3     1  UNL1        0.0173
     20 N          61.0811   85.4102    7.4903 N.3     1  UNL1       -0.3219
     21 C          62.3803   87.3914    9.2555 C.3     1  UNL1        0.1062
     22 H          60.1272   85.5741    7.1685 H       1  UNL1        0.1188
     23 H          61.1161   84.5397    8.0208 H       1  UNL1        0.1188
     24 C          62.3737   88.2071   12.9894 C.3     1  UNL1        0.1350
     25 C          63.1401   86.9339   13.1932 C.ar    1  UNL1        0.0132
     26 C          64.3254   86.9109   14.1122 C.ar    1  UNL1        0.0281
     27 C          65.0918   85.6377   14.3160 C.ar    1  UNL1        0.1399
     28 F          66.2771   85.6147   15.2350 F       1  UNL1       -0.2042
     29 C          64.6729   84.3874   13.6009 C.ar    1  UNL1        0.0305
     30 C          63.4876   84.4104   12.6820 C.ar    1  UNL1        0.0134
     31 C          62.7212   85.6836   12.4781 C.ar    1  UNL1        0.0557
     32 CL         61.5359   85.7066   11.5592 Cl      1  UNL1       -0.0825
@<TRIPOS>BOND
     1     1     2    1
     2     2     3   ar
     3     3     4    2
     4     3     5   ar
     5     5     6   ar
     6     6     7   ar
     7     7     8   ar
     8     8    14    1
     9    14    15    1
    10    15    16    1
    11    16    17    1
    12    17    18    1
    13    18    19    1
    14    18    20    1
    15    18    21    1
    16     8     9   ar
    17     9    24    1
    18    24    25    1
    19    25    26   ar
    20    26    27   ar
    21    27    28    1
    22    27    29   ar
    23    29    30   ar
    24    30    31   ar
    25    31    32    1
    26     6    10   ar
    27    10    11    1
    28    10    12   ar
    29    12    13    2
    30    12     2   ar
    31     9     5   ar
    32    31    25   ar
    33    21    14    1
    34    20    22    1
    35    20    23    1
@<TRIPOS>MOLECULE
*****
 32 35 0 0 0
SMALL
GASTEIGER

@<TRIPOS>ATOM
      1 C          62.7380   82.8528   10.5019 C.3     1  UNL1        0.1383
      2 N          63.0999   83.7176   11.6729 N.ar    1  UNL1       -0.2455
      3 C          63.0683   85.2114   11.5401 C.ar    1  UNL1        0.2816
      4 O          62.6749   85.8403   10.2364 O.2     1  UNL1       -0.2652
      5 C          63.4302   86.0762   12.7110 C.ar    1  UNL1        0.1342
      6 C          63.8236   85.4473   14.0148 C.ar    1  UNL1        0.0871
      7 C          64.1266   86.5480   14.9877 C.ar    1  UNL1        0.0515
      8 C          63.9203   87.8572   14.2853 C.ar    1  UNL1        0.1142
      9 N          63.4900   87.5657   12.8782 N.ar    1  UNL1       -0.3068
     10 N          63.8552   83.9535   14.1476 N.ar    1  UNL1       -0.2776
     11 C          64.2486   83.3245   15.4513 C.3     1  UNL1        0.1351
     12 C          63.4933   83.0887   12.9765 C.ar    1  UNL1        0.3339
     13 O          63.5249   81.5948   13.1093 O.2     1  UNL1       -0.2462
     14 N          64.1110   89.2190   14.8847 N.pl3   1  UNL1       -0.2932
     15 C          63.3176   89.6252   16.0911 C.3     1  UNL1        0.0922
     16 C          63.5084   90.9870   16.6904 C.3     1  UNL1        0.0228
     17 C          64.4925   91.9426   16.0833 C.3     1  UNL1        0.0177
     18 C          65.2858   91.5364   14.8769 C.3     1  UNL1        0.0575
     19 C          66.2633   91.6122   13.7417 C.3     1  UNL1        0.0173
     20 N          65.8160   92.9244   15.0820 N.3     1  UNL1       -0.3219
     21 C          65.0951   90.1745   14.2776 C.3     1  UNL1        0.1062
     22 H          65.3598   93.3466   15.8907 H       1  UNL1        0.1188
     23 H          65.6263   93.4869   14.2525 H       1  UNL1        0.1188
     24 C          63.1747   88.5846   11.8236 C.3     1  UNL1        0.1350
     25 C          61.8046   89.1909   11.7523 C.ar    1  UNL1        0.0132
     26 C          60.6739   88.5825   12.5278 C.ar    1  UNL1        0.0281
     27 C          59.3038   89.1888   12.4565 C.ar    1  UNL1        0.1399
     28 F          58.1731   88.5804   13.2320 F       1  UNL1       -0.2042
     29 C          59.0642   90.4036   11.6096 C.ar    1  UNL1        0.0305
     30 C          60.1948   91.0119   10.8341 C.ar    1  UNL1        0.0134
     31 C          61.5650   90.4057   10.9054 C.ar    1  UNL1        0.0557
     32 CL         62.6957   91.0141   10.1299 Cl      1  UNL1       -0.0825
@<TRIPOS>BOND
     1     1     2    1
     2     2     3   ar
     3     3     4    2
     4     3     5   ar
     5     5     6   ar
     6     6     7   ar
     7     7     8   ar
     8     8    14    1
     9    14    15    1
    10    15    16    1
    11    16    17    1
    12    17    18    1
    13    18    19    1
    14    18    20    1
    15    18    21    1
    16     8     9   ar
    17     9    24    1
    18    24    25    1
    19    25    26   ar
    20    26    27   ar
    21    27    28    1
    22    27    29   ar
    23    29    30   ar
    24    30    31   ar
    25    31    32    1
    26     6    10   ar
    27    10    11    1
    28    10    12   ar
    29    12    13    2
    30    12     2   ar
    31     9     5   ar
    32    31    25   ar
    33    21    14    1
    34    20    22    1
    35    20    23    1
@<TRIPOS>MOLECULE
*****
 32 35 0 0 0
SMALL
GASTEIGER

@<TRIPOS>ATOM
      1 C          63.9201   90.5115   14.7652 C.3     1  UNL1        0.1383
      2 N          63.6432   89.0581   15.0124 N.ar    1  UNL1       -0.2455
      3 C          63.6059   88.0956   13.8626 C.ar    1  UNL1        0.2816
      4 O          63.8455   88.5865   12.4656 O.2     1  UNL1       -0.2652
      5 C          63.3291   86.6423   14.1097 C.ar    1  UNL1        0.1342
      6 C          63.0895   86.1514   15.5067 C.ar    1  UNL1        0.0871
      7 C          62.8429   84.6732   15.4428 C.ar    1  UNL1        0.0515
      8 C          62.9301   84.2505   14.0062 C.ar    1  UNL1        0.1142
      9 N          63.2306   85.4674   13.1823 N.ar    1  UNL1       -0.3068
     10 N          63.1268   87.1139   16.6566 N.ar    1  UNL1       -0.2776
     11 C          62.8872   86.6231   18.0537 C.3     1  UNL1        0.1351
     12 C          63.4036   88.5673   16.4094 C.ar    1  UNL1        0.3339
     13 O          63.4409   89.5298   17.5593 O.2     1  UNL1       -0.2462
     14 N          62.7488   82.8557   13.4850 N.pl3   1  UNL1       -0.2932
     15 C          62.1187   81.8068   14.3527 C.3     1  UNL1        0.0922
     16 C          61.9374   80.4120   13.8314 C.3     1  UNL1        0.0228
     17 C          62.3860   80.0661   12.4425 C.3     1  UNL1        0.0177
     18 C          63.0161   81.1150   11.5749 C.3     1  UNL1        0.0575
     19 C          63.6610   81.7569   10.3824 C.3     1  UNL1        0.0173
     20 N          63.0587   79.9431   10.6395 N.3     1  UNL1       -0.3219
     21 C          63.1975   82.5098   12.0962 C.3     1  UNL1        0.1062
     22 H          62.6534   79.1271   11.0980 H       1  UNL1        0.1188
     23 H          64.0268   79.7451   10.3864 H       1  UNL1        0.1188
     24 C          63.4024   85.5032   11.6926 C.3     1  UNL1        0.1350
     25 C          62.3113   86.0569   10.8250 C.ar    1  UNL1        0.0132
     26 C          61.2639   86.9527   11.4171 C.ar    1  UNL1        0.0281
     27 C          60.1728   87.5064   10.5495 C.ar    1  UNL1        0.1399
     28 F          59.1254   88.4022   11.1416 F       1  UNL1       -0.2042
     29 C          60.1291   87.1644    9.0896 C.ar    1  UNL1        0.0305
     30 C          61.1764   86.2687    8.4974 C.ar    1  UNL1        0.0134
     31 C          62.2675   85.7149    9.3651 C.ar    1  UNL1        0.0557
     32 CL         63.3149   84.8193    8.7730 Cl      1  UNL1       -0.0825
@<TRIPOS>BOND
     1     1     2    1
     2     2     3   ar
     3     3     4    2
     4     3     5   ar
     5     5     6   ar
     6     6     7   ar
     7     7     8   ar
     8     8    14    1
     9    14    15    1
    10    15    16    1
    11    16    17    1
    12    17    18    1
    13    18    19    1
    14    18    20    1
    15    18    21    1
    16     8     9   ar
    17     9    24    1
    18    24    25    1
    19    25    26   ar
    20    26    27   ar
    21    27    28    1
    22    27    29   ar
    23    29    30   ar
    24    30    31   ar
    25    31    32    1
    26     6    10   ar
    27    10    11    1
    28    10    12   ar
    29    12    13    2
    30    12     2   ar
    31     9     5   ar
    32    31    25   ar
    33    21    14    1
    34    20    22    1
    35    20    23    1
@<TRIPOS>MOLECULE
*****
 32 35 0 0 0
SMALL
GASTEIGER

@<TRIPOS>ATOM
      1 C          60.8431   89.1188    9.0125 C.3     1  UNL1        0.1383
      2 N          61.7737   89.1358   10.1889 N.ar    1  UNL1       -0.2455
      3 C          62.5670   90.3702   10.4998 C.ar    1  UNL1        0.2816
      4 O          62.4297   91.5877    9.6345 O.2     1  UNL1       -0.2652
      5 C          63.4976   90.3872   11.6761 C.ar    1  UNL1        0.1342
      6 C          63.6349   89.1697   12.5415 C.ar    1  UNL1        0.0871
      7 C          64.6239   89.4807   13.6256 C.ar    1  UNL1        0.0515
      8 C          65.0978   90.8903   13.4302 C.ar    1  UNL1        0.1142
      9 N          64.4017   91.4506   12.2254 N.ar    1  UNL1       -0.3068
     10 N          62.8416   87.9353   12.2306 N.ar    1  UNL1       -0.2776
     11 C          62.9788   86.7177   13.0959 C.3     1  UNL1        0.1351
     12 C          61.9110   87.9183   11.0542 C.ar    1  UNL1        0.3339
     13 O          61.1176   86.6838   10.7432 O.2     1  UNL1       -0.2462
     14 N          66.0931   91.6129   14.2888 N.pl3   1  UNL1       -0.2932
     15 C          65.6769   92.1578   15.6229 C.3     1  UNL1        0.0922
     16 C          66.6723   92.8804   16.4815 C.3     1  UNL1        0.0228
     17 C          68.0838   93.0580   16.0061 C.3     1  UNL1        0.0177
     18 C          68.5000   92.5131   14.6720 C.3     1  UNL1        0.0575
     19 C          69.3664   92.1788   13.4940 C.3     1  UNL1        0.0173
     20 N          69.7962   93.1196   15.1215 N.3     1  UNL1       -0.3219
     21 C          67.5046   91.7905   13.8134 C.3     1  UNL1        0.1062
     22 H          69.6726   93.5432   16.0411 H       1  UNL1        0.1188
     23 H          70.0867   93.8342   14.4542 H       1  UNL1        0.1188
     24 C          64.5788   92.8318   11.6677 C.3     1  UNL1        0.1350
     25 C          65.7902   93.1593   10.8461 C.ar    1  UNL1        0.0132
     26 C          66.6589   92.0563   10.3181 C.ar    1  UNL1        0.0281
     27 C          67.8704   92.3838    9.4965 C.ar    1  UNL1        0.1399
     28 F          68.7391   91.2808    8.9685 F       1  UNL1       -0.2042
     29 C          68.2132   93.8143    9.2028 C.ar    1  UNL1        0.0305
     30 C          67.3445   94.9173    9.7307 C.ar    1  UNL1        0.0134
     31 C          66.1330   94.5899   10.5524 C.ar    1  UNL1        0.0557
     32 CL         65.2643   95.6928   11.0804 Cl      1  UNL1       -0.0825
@<TRIPOS>BOND
     1     1     2    1
     2     2     3   ar
     3     3     4    2
     4     3     5   ar
     5     5     6   ar
     6     6     7   ar
     7     7     8   ar
     8     8    14    1
     9    14    15    1
    10    15    16    1
    11    16    17    1
    12    17    18    1
    13    18    19    1
    14    18    20    1
    15    18    21    1
    16     8     9   ar
    17     9    24    1
    18    24    25    1
    19    25    26   ar
    20    26    27   ar
    21    27    28    1
    22    27    29   ar
    23    29    30   ar
    24    30    31   ar
    25    31    32    1
    26     6    10   ar
    27    10    11    1
    28    10    12   ar
    29    12    13    2
    30    12     2   ar
    31     9     5   ar
    32    31    25   ar
    33    21    14    1
    34    20    22    1
    35    20    23    1
@<TRIPOS>MOLECULE
*****
 32 35 0 0 0
SMALL
GASTEIGER

@<TRIPOS>ATOM
      1 C          61.2956   85.6066   10.1513 C.3     1  UNL1        0.1383
      2 N          62.1377   86.1038   11.2887 N.ar    1  UNL1       -0.2455
      3 C          62.3071   87.5780   11.5079 C.ar    1  UNL1        0.2816
      4 O          61.6344   88.5549   10.5897 O.2     1  UNL1       -0.2652
      5 C          63.1491   88.0753   12.6453 C.ar    1  UNL1        0.1342
      6 C          63.8218   87.0983   13.5635 C.ar    1  UNL1        0.0871
      7 C          64.5851   87.8789   14.5922 C.ar    1  UNL1        0.0515
      8 C          64.3841   89.3383   14.3097 C.ar    1  UNL1        0.1142
      9 N          63.4967   89.4597   13.1064 N.ar    1  UNL1       -0.3068
     10 N          63.6524   85.6241   13.3444 N.ar    1  UNL1       -0.2776
     11 C          64.3250   84.6471   14.2626 C.3     1  UNL1        0.1351
     12 C          62.8103   85.1269   12.2069 C.ar    1  UNL1        0.3339
     13 O          62.6409   83.6526   11.9877 O.2     1  UNL1       -0.2462
     14 N          64.9681   90.4765   15.0929 N.pl3   1  UNL1       -0.2932
     15 C          64.1331   91.1906   16.1141 C.3     1  UNL1        0.0922
     16 C          64.7171   92.3289   16.8972 C.3     1  UNL1        0.0228
     17 C          66.1361   92.7530   16.6593 C.3     1  UNL1        0.0177
     18 C          66.9711   92.0389   15.6381 C.3     1  UNL1        0.0575
     19 C          68.1512   91.6764   14.7861 C.3     1  UNL1        0.0173
     20 N          67.9649   93.0513   16.1253 N.3     1  UNL1       -0.3219
     21 C          66.3870   90.9007   14.8549 C.3     1  UNL1        0.1062
     22 H          67.5343   93.6312   16.8455 H       1  UNL1        0.1188
     23 H          68.2604   93.6399   15.3465 H       1  UNL1        0.1188
     24 C          63.0374   90.7405   12.4752 C.3     1  UNL1        0.1350
     25 C          64.0438   91.7179   11.9441 C.ar    1  UNL1        0.0132
     26 C          64.9331   92.4678   12.8910 C.ar    1  UNL1        0.0281
     27 C          65.9394   93.4452   12.3599 C.ar    1  UNL1        0.1399
     28 F          66.8288   94.1951   13.3069 F       1  UNL1       -0.2042
     29 C          66.0565   93.6726   10.8818 C.ar    1  UNL1        0.0305
     30 C          65.1672   92.9227    9.9350 C.ar    1  UNL1        0.0134
     31 C          64.1608   91.9453   10.4660 C.ar    1  UNL1        0.0557
     32 CL         63.2715   91.1954    9.5191 Cl      1  UNL1       -0.0825
@<TRIPOS>BOND
     1     1     2    1
     2     2     3   ar
     3     3     4    2
     4     3     5   ar
     5     5     6   ar
     6     6     7   ar
     7     7     8   ar
     8     8    14    1
     9    14    15    1
    10    15    16    1
    11    16    17    1
    12    17    18    1
    13    18    19    1
    14    18    20    1
    15    18    21    1
    16     8     9   ar
    17     9    24    1
    18    24    25    1
    19    25    26   ar
    20    26    27   ar
    21    27    28    1
    22    27    29   ar
    23    29    30   ar
    24    30    31   ar
    25    31    32    1
    26     6    10   ar
    27    10    11    1
    28    10    12   ar
    29    12    13    2
    30    12     2   ar
    31     9     5   ar
    32    31    25   ar
    33    21    14    1
    34    20    22    1
    35    20    23    1
