@<TRIPOS>MOLECULE
*****
 25 28 0 0 0
SMALL
GASTEIGER

@<TRIPOS>ATOM
      1 C          61.8111   88.9394   11.1940 C.ar    1  UNL1        0.1917
      2 N          61.7545   88.3497   12.5721 N.ar    1  UNL1       -0.1268
      3 N          62.7342   89.0901   13.4335 N.ar    1  UNL1       -0.1316
      4 C          63.3962   90.1373   12.5879 C.ar    1  UNL1        0.1615
      5 N          62.8257   90.0442   11.2038 N.ar    1  UNL1       -0.2940
      6 C          63.3037   90.9773   10.1311 C.3     1  UNL1        0.1302
      7 C          64.3524   92.0037   10.4426 C.3     1  UNL1        0.1186
      8 N          64.9229   92.0969   11.8268 N.am    1  UNL1       -0.2688
      9 C          65.9715   93.1232   12.1383 C.2     1  UNL1        0.2493
     10 O          66.5420   93.2164   13.5224 O.2     1  UNL1       -0.2699
     11 C          64.4448   91.1636   12.8994 C.3     1  UNL1        0.1343
     12 C          65.0153   91.2568   14.2835 C.3     1  UNL1        0.0298
     13 C          66.4495   94.0564   11.0656 C.ar    1  UNL1        0.0536
     14 C          66.0987   95.5135   11.1281 C.ar    1  UNL1        0.0054
     15 C          66.5768   96.4467   10.0554 C.ar    1  UNL1        0.0115
     16 C          67.4057   95.9228    8.9203 C.ar    1  UNL1        0.0577
     17 CL         67.8838   96.8560    7.8476 Cl      1  UNL1       -0.0822
     18 C          67.7566   94.4657    8.8579 C.ar    1  UNL1        0.0115
     19 C          67.2785   93.5326    9.9305 C.ar    1  UNL1        0.0054
     20 C          59.0105   89.0163    6.7184 C.3     1  UNL1        0.0744
     21 C          59.7089   88.5366    7.9562 C.ar    1  UNL1        0.1481
     22 N          59.7752   87.1173    8.4370 N.ar    1  UNL1       -0.1929
     23 S          60.5709   87.0954    9.7085 S.2     1  UNL1        0.0369
     24 C          60.9961   88.5012   10.0134 C.ar    1  UNL1        0.1652
     25 N          60.4634   89.3919    8.9304 N.ar    1  UNL1       -0.2190
@<TRIPOS>BOND
     1    20    21    1
     2    21    22   ar
     3    22    23   ar
     4    23    24   ar
     5    24     1    1
     6     1     2   ar
     7     2     3   ar
     8     3     4   ar
     9     4     5   ar
    10     5     6    1
    11     6     7    1
    12     7     8    1
    13     8     9   am
    14     9    10    2
    15     9    13    1
    16    13    14   ar
    17    14    15   ar
    18    15    16   ar
    19    16    17    1
    20    16    18   ar
    21    18    19   ar
    22     8    11    1
    23    11    12    1
    24    24    25   ar
    25    25    21   ar
    26     5     1   ar
    27    19    13   ar
    28    11     4    1
@<TRIPOS>MOLECULE
*****
 25 28 0 0 0
SMALL
GASTEIGER

@<TRIPOS>ATOM
      1 C          66.1188   93.5304   12.2575 C.ar    1  UNL1        0.1917
      2 N          66.6985   93.3889   13.6337 N.ar    1  UNL1       -0.1268
      3 N          66.1484   92.1327   14.2414 N.ar    1  UNL1       -0.1316
      4 C          65.2287   91.4978   13.2408 C.ar    1  UNL1        0.1615
      5 N          65.2104   92.3617   12.0146 N.ar    1  UNL1       -0.2940
      6 C          64.3690   91.9724   10.8354 C.3     1  UNL1        0.1302
      7 C          63.5459   90.7193   10.8824 C.3     1  UNL1        0.1186
      8 N          63.5642   89.8554   12.1085 N.am    1  UNL1       -0.2688
      9 C          62.7411   88.6023   12.1555 C.2     1  UNL1        0.2493
     10 O          62.7594   87.7385   13.3816 O.2     1  UNL1       -0.2699
     11 C          64.4056   90.2447   13.2877 C.3     1  UNL1        0.1343
     12 C          64.4239   89.3809   14.5139 C.3     1  UNL1        0.0298
     13 C          61.8997   88.2131   10.9763 C.ar    1  UNL1        0.0536
     14 C          60.9738   89.2148   10.3523 C.ar    1  UNL1        0.0054
     15 C          60.1324   88.8255    9.1730 C.ar    1  UNL1        0.0115
     16 C          60.2169   87.4346    8.6179 C.ar    1  UNL1        0.0577
     17 CL         59.3755   87.0453    7.4386 Cl      1  UNL1       -0.0822
     18 C          61.1427   86.4329    9.2419 C.ar    1  UNL1        0.0115
     19 C          61.9841   86.8222   10.4211 C.ar    1  UNL1        0.0054
     20 C          67.6324   96.1831    7.9502 C.3     1  UNL1        0.0744
     21 C          67.0940   95.8643    9.3135 C.ar    1  UNL1        0.1481
     22 N          66.5630   96.8560   10.3057 N.ar    1  UNL1       -0.1929
     23 S          66.1330   96.1023   11.5294 S.2     1  UNL1        0.0369
     24 C          66.3983   94.6450   11.2933 C.ar    1  UNL1        0.1652
     25 N          66.9923   94.4978    9.9238 N.ar    1  UNL1       -0.2190
@<TRIPOS>BOND
     1    20    21    1
     2    21    22   ar
     3    22    23   ar
     4    23    24   ar
     5    24     1    1
     6     1     2   ar
     7     2     3   ar
     8     3     4   ar
     9     4     5   ar
    10     5     6    1
    11     6     7    1
    12     7     8    1
    13     8     9   am
    14     9    10    2
    15     9    13    1
    16    13    14   ar
    17    14    15   ar
    18    15    16   ar
    19    16    17    1
    20    16    18   ar
    21    18    19   ar
    22     8    11    1
    23    11    12    1
    24    24    25   ar
    25    25    21   ar
    26     5     1   ar
    27    19    13   ar
    28    11     4    1
@<TRIPOS>MOLECULE
*****
 25 28 0 0 0
SMALL
GASTEIGER

@<TRIPOS>ATOM
      1 C          63.0987   84.7337   15.5098 C.ar    1  UNL1        0.1917
      2 N          62.5392   84.7221   16.9015 N.ar    1  UNL1       -0.1268
      3 N          62.5426   86.1318   17.4141 N.ar    1  UNL1       -0.1316
      4 C          63.1041   87.0146   16.3392 C.ar    1  UNL1        0.1615
      5 N          63.4478   86.1505   15.1623 N.ar    1  UNL1       -0.2940
      6 C          64.0343   86.7654   13.9262 C.3     1  UNL1        0.1302
      7 C          64.2771   88.2445   13.8670 C.3     1  UNL1        0.1186
      8 N          63.9334   89.1086   15.0440 N.am    1  UNL1       -0.2688
      9 C          64.1762   90.5876   14.9849 C.2     1  UNL1        0.2493
     10 O          63.8325   91.4517   16.1618 O.2     1  UNL1       -0.2699
     11 C          63.3469   88.4936   16.2801 C.3     1  UNL1        0.1343
     12 C          63.0032   89.3577   17.4570 C.3     1  UNL1        0.0298
     13 C          64.7627   91.2025   13.7488 C.ar    1  UNL1        0.0536
     14 C          66.1619   91.7427   13.7713 C.ar    1  UNL1        0.0054
     15 C          66.7484   92.3576   12.5351 C.ar    1  UNL1        0.0115
     16 C          65.9357   92.4323   11.2766 C.ar    1  UNL1        0.0577
     17 CL         66.5222   93.0472   10.0404 Cl      1  UNL1       -0.0822
     18 C          64.5365   91.8921   11.2541 C.ar    1  UNL1        0.0115
     19 C          63.9500   91.2772   12.4902 C.ar    1  UNL1        0.0054
     20 C          62.4397   79.9971   13.2712 C.3     1  UNL1        0.0744
     21 C          62.9747   81.3611   13.5925 C.ar    1  UNL1        0.1481
     22 N          64.1311   82.0364   12.9166 N.ar    1  UNL1       -0.1929
     23 S          64.3183   83.3820   13.5526 S.2     1  UNL1        0.0369
     24 C          63.2776   83.5383   14.6215 C.ar    1  UNL1        0.1652
     25 N          62.4472   82.2894   14.6462 N.ar    1  UNL1       -0.2190
@<TRIPOS>BOND
     1    20    21    1
     2    21    22   ar
     3    22    23   ar
     4    23    24   ar
     5    24     1    1
     6     1     2   ar
     7     2     3   ar
     8     3     4   ar
     9     4     5   ar
    10     5     6    1
    11     6     7    1
    12     7     8    1
    13     8     9   am
    14     9    10    2
    15     9    13    1
    16    13    14   ar
    17    14    15   ar
    18    15    16   ar
    19    16    17    1
    20    16    18   ar
    21    18    19   ar
    22     8    11    1
    23    11    12    1
    24    24    25   ar
    25    25    21   ar
    26     5     1   ar
    27    19    13   ar
    28    11     4    1
@<TRIPOS>MOLECULE
*****
 25 28 0 0 0
SMALL
GASTEIGER

@<TRIPOS>ATOM
      1 C          64.0901   90.9646   14.4142 C.ar    1  UNL1        0.1917
      2 N          63.8318   91.6153   15.7408 N.ar    1  UNL1       -0.1268
      3 N          63.4557   90.5415   16.7183 N.ar    1  UNL1       -0.1316
      4 C          63.4815   89.2272   15.9958 C.ar    1  UNL1        0.1615
      5 N          63.8736   89.4887   14.5718 N.ar    1  UNL1       -0.2940
      6 C          63.9829   88.3492   13.6026 C.3     1  UNL1        0.1302
      7 C          63.7000   86.9480   14.0574 C.3     1  UNL1        0.1186
      8 N          63.3079   86.6864   15.4814 N.am    1  UNL1       -0.2688
      9 C          63.0251   85.2853   15.9362 C.2     1  UNL1        0.2493
     10 O          62.6330   85.0238   17.3602 O.2     1  UNL1       -0.2699
     11 C          63.1987   87.8261   16.4506 C.3     1  UNL1        0.1343
     12 C          62.8065   87.5646   17.8746 C.3     1  UNL1        0.0298
     13 C          63.1344   84.1458   14.9670 C.ar    1  UNL1        0.0536
     14 C          62.0619   83.0983   14.9170 C.ar    1  UNL1        0.0054
     15 C          62.1712   81.9587   13.9477 C.ar    1  UNL1        0.0115
     16 C          63.3530   81.8666   13.0285 C.ar    1  UNL1        0.0577
     17 CL         63.4623   80.7270   12.0592 Cl      1  UNL1       -0.0822
     18 C          64.4254   82.9141   13.0785 C.ar    1  UNL1        0.0115
     19 C          64.3162   84.0537   14.0477 C.ar    1  UNL1        0.0054
     20 C          66.4537   94.2689   11.0414 C.3     1  UNL1        0.0744
     21 C          65.5804   93.1854   11.6014 C.ar    1  UNL1        0.1481
     22 N          64.6507   92.3084   10.8162 N.ar    1  UNL1       -0.1929
     23 S          63.9792   91.3697   11.7744 S.2     1  UNL1        0.0369
     24 C          64.4940   91.6666   13.1516 C.ar    1  UNL1        0.1652
     25 N          65.4836   92.7888   13.0447 N.ar    1  UNL1       -0.2190
@<TRIPOS>BOND
     1    20    21    1
     2    21    22   ar
     3    22    23   ar
     4    23    24   ar
     5    24     1    1
     6     1     2   ar
     7     2     3   ar
     8     3     4   ar
     9     4     5   ar
    10     5     6    1
    11     6     7    1
    12     7     8    1
    13     8     9   am
    14     9    10    2
    15     9    13    1
    16    13    14   ar
    17    14    15   ar
    18    15    16   ar
    19    16    17    1
    20    16    18   ar
    21    18    19   ar
    22     8    11    1
    23    11    12    1
    24    24    25   ar
    25    25    21   ar
    26     5     1   ar
    27    19    13   ar
    28    11     4    1
@<TRIPOS>MOLECULE
*****
 25 28 0 0 0
SMALL
GASTEIGER

@<TRIPOS>ATOM
      1 C          63.1774   83.0045   13.6945 C.ar    1  UNL1        0.1917
      2 N          62.7435   82.3769   14.9859 N.ar    1  UNL1       -0.1268
      3 N          62.6804   83.4549   16.0269 N.ar    1  UNL1       -0.1316
      4 C          63.0752   84.7488   15.3789 C.ar    1  UNL1        0.1615
      5 N          63.3824   84.4704   13.9373 N.ar    1  UNL1       -0.2940
      6 C          63.8091   85.5877   13.0321 C.3     1  UNL1        0.1302
      7 C          63.9286   86.9835   13.5684 C.3     1  UNL1        0.1186
      8 N          63.6214   87.2619   15.0100 N.am    1  UNL1       -0.2688
      9 C          63.7409   88.6576   15.5463 C.2     1  UNL1        0.2493
     10 O          63.4337   88.9360   16.9878 O.2     1  UNL1       -0.2699
     11 C          63.1947   86.1445   15.9152 C.3     1  UNL1        0.1343
     12 C          62.8875   86.4229   17.3568 C.3     1  UNL1        0.0298
     13 C          64.1676   89.7749   14.6410 C.ar    1  UNL1        0.0536
     14 C          63.3168   90.1541   13.4653 C.ar    1  UNL1        0.0054
     15 C          63.7436   91.2715   12.5600 C.ar    1  UNL1        0.0115
     16 C          65.0210   92.0096   12.8305 C.ar    1  UNL1        0.0577
     17 CL         65.4478   93.1270   11.9252 Cl      1  UNL1       -0.0822
     18 C          65.8718   91.6304   14.0062 C.ar    1  UNL1        0.0115
     19 C          65.4451   90.5131   14.9115 C.ar    1  UNL1        0.0054
     20 C          62.7928   79.4525    9.8065 C.3     1  UNL1        0.0744
     21 C          63.1953   80.6587   10.6022 C.ar    1  UNL1        0.1481
     22 N          64.1481   81.7292   10.1593 N.ar    1  UNL1       -0.1929
     23 S          64.2574   82.7383   11.2639 S.2     1  UNL1        0.0369
     24 C          63.3721   82.2914   12.3893 C.ar    1  UNL1        0.1652
     25 N          62.7157   81.0061   11.9803 N.ar    1  UNL1       -0.2190
@<TRIPOS>BOND
     1    20    21    1
     2    21    22   ar
     3    22    23   ar
     4    23    24   ar
     5    24     1    1
     6     1     2   ar
     7     2     3   ar
     8     3     4   ar
     9     4     5   ar
    10     5     6    1
    11     6     7    1
    12     7     8    1
    13     8     9   am
    14     9    10    2
    15     9    13    1
    16    13    14   ar
    17    14    15   ar
    18    15    16   ar
    19    16    17    1
    20    16    18   ar
    21    18    19   ar
    22     8    11    1
    23    11    12    1
    24    24    25   ar
    25    25    21   ar
    26     5     1   ar
    27    19    13   ar
    28    11     4    1
@<TRIPOS>MOLECULE
*****
 25 28 0 0 0
SMALL
GASTEIGER

@<TRIPOS>ATOM
      1 C          59.5026   88.6355    7.2514 C.ar    1  UNL1        0.1917
      2 N          59.0509   87.2096    7.1377 N.ar    1  UNL1       -0.1268
      3 N          59.6732   86.4353    8.2616 N.ar    1  UNL1       -0.1316
      4 C          60.5095   87.3826    9.0699 C.ar    1  UNL1        0.1615
      5 N          60.4041   88.7424    8.4455 N.ar    1  UNL1       -0.2940
      6 C          61.1425   89.9022    9.0449 C.3     1  UNL1        0.1302
      7 C          61.9865   89.7023   10.2688 C.3     1  UNL1        0.1186
      8 N          62.0919   88.3425   10.8932 N.am    1  UNL1       -0.2688
      9 C          62.9359   88.1426   12.1170 C.2     1  UNL1        0.2493
     10 O          63.0413   86.7828   12.7414 O.2     1  UNL1       -0.2699
     11 C          61.3534   87.1827   10.2937 C.3     1  UNL1        0.1343
     12 C          61.4588   85.8229   10.9181 C.3     1  UNL1        0.0298
     13 C          63.6743   89.3024   12.7164 C.ar    1  UNL1        0.0536
     14 C          64.2754   89.1821   14.0855 C.ar    1  UNL1        0.0054
     15 C          65.0139   90.3421   14.6849 C.ar    1  UNL1        0.0115
     16 C          65.1513   91.6222   13.9153 C.ar    1  UNL1        0.0577
     17 CL         65.8898   92.7822   14.5147 Cl      1  UNL1       -0.0822
     18 C          64.5502   91.7425   12.5463 C.ar    1  UNL1        0.0115
     19 C          63.8118   90.5827   11.9468 C.ar    1  UNL1        0.0054
     20 C          59.7925   92.6145    3.7924 C.3     1  UNL1        0.0744
     21 C          59.2533   91.5864    4.7423 C.ar    1  UNL1        0.1481
     22 N          57.8093   91.3817    5.0933 N.ar    1  UNL1       -0.1929
     23 S          57.7270   90.2513    6.0760 S.2     1  UNL1        0.0369
     24 C          59.1200   89.7574    6.3322 C.ar    1  UNL1        0.1652
     25 N          60.0633   90.5826    5.5080 N.ar    1  UNL1       -0.2190
@<TRIPOS>BOND
     1    20    21    1
     2    21    22   ar
     3    22    23   ar
     4    23    24   ar
     5    24     1    1
     6     1     2   ar
     7     2     3   ar
     8     3     4   ar
     9     4     5   ar
    10     5     6    1
    11     6     7    1
    12     7     8    1
    13     8     9   am
    14     9    10    2
    15     9    13    1
    16    13    14   ar
    17    14    15   ar
    18    15    16   ar
    19    16    17    1
    20    16    18   ar
    21    18    19   ar
    22     8    11    1
    23    11    12    1
    24    24    25   ar
    25    25    21   ar
    26     5     1   ar
    27    19    13   ar
    28    11     4    1
@<TRIPOS>MOLECULE
*****
 25 28 0 0 0
SMALL
GASTEIGER

@<TRIPOS>ATOM
      1 C          71.9401   75.5140   14.3567 C.ar    1  UNL1        0.1917
      2 N          72.4383   75.9846   15.6910 N.ar    1  UNL1       -0.1268
      3 N          72.9251   77.3946   15.5329 N.ar    1  UNL1       -0.1316
      4 C          72.7279   77.7954   14.1009 C.ar    1  UNL1        0.1615
      5 N          72.1191   76.6331   13.3740 N.ar    1  UNL1       -0.2940
      6 C          71.8064   76.7439   11.9112 C.3     1  UNL1        0.1302
      7 C          72.1024   78.0170   11.1752 C.3     1  UNL1        0.1186
      8 N          72.7112   79.1793   11.9022 N.am    1  UNL1       -0.2688
      9 C          73.0073   80.4524   11.1663 C.2     1  UNL1        0.2493
     10 O          73.6160   81.6147   11.8933 O.2     1  UNL1       -0.2699
     11 C          73.0239   79.0685   13.3651 C.3     1  UNL1        0.1343
     12 C          73.6327   80.2308   14.0921 C.3     1  UNL1        0.0298
     13 C          72.6945   80.5632    9.7035 C.ar    1  UNL1        0.0536
     14 C          71.8277   81.6810    9.2044 C.ar    1  UNL1        0.0054
     15 C          71.5150   81.7918    7.7415 C.ar    1  UNL1        0.0115
     16 C          72.0691   80.7848    6.7778 C.ar    1  UNL1        0.0577
     17 CL         71.7564   80.8956    5.3149 Cl      1  UNL1       -0.0822
     18 C          72.9360   79.6670    7.2769 C.ar    1  UNL1        0.0115
     19 C          73.2487   79.5562    8.7397 C.ar    1  UNL1        0.0054
     20 C          70.4010   71.1691   11.7811 C.3     1  UNL1        0.0744
     21 C          70.6567   72.1646   12.8736 C.ar    1  UNL1        0.1481
     22 N          70.2988   71.9968   14.3207 N.ar    1  UNL1       -0.1929
     23 S          70.7361   73.2312   15.0524 S.2     1  UNL1        0.0369
     24 C          71.3641   74.1617   14.0575 C.ar    1  UNL1        0.1652
     25 N          71.3151   73.5025   12.7110 N.ar    1  UNL1       -0.2190
@<TRIPOS>BOND
     1    20    21    1
     2    21    22   ar
     3    22    23   ar
     4    23    24   ar
     5    24     1    1
     6     1     2   ar
     7     2     3   ar
     8     3     4   ar
     9     4     5   ar
    10     5     6    1
    11     6     7    1
    12     7     8    1
    13     8     9   am
    14     9    10    2
    15     9    13    1
    16    13    14   ar
    17    14    15   ar
    18    15    16   ar
    19    16    17    1
    20    16    18   ar
    21    18    19   ar
    22     8    11    1
    23    11    12    1
    24    24    25   ar
    25    25    21   ar
    26     5     1   ar
    27    19    13   ar
    28    11     4    1
@<TRIPOS>MOLECULE
*****
 25 28 0 0 0
SMALL
GASTEIGER

@<TRIPOS>ATOM
      1 C          71.4875   73.7248   13.9797 C.ar    1  UNL1        0.1917
      2 N          71.6769   73.7867   15.4664 N.ar    1  UNL1       -0.1268
      3 N          72.1044   75.1800   15.8215 N.ar    1  UNL1       -0.1316
      4 C          72.1793   75.9791   14.5543 C.ar    1  UNL1        0.1615
      5 N          71.7980   75.0798   13.4160 N.ar    1  UNL1       -0.2940
      6 C          71.7829   75.6108   12.0133 C.3     1  UNL1        0.1302
      7 C          72.1490   77.0413   11.7488 C.3     1  UNL1        0.1186
      8 N          72.5302   77.9406   12.8871 N.am    1  UNL1       -0.2688
      9 C          72.8963   79.3710   12.6228 C.2     1  UNL1        0.2493
     10 O          73.2776   80.2703   13.7611 O.2     1  UNL1       -0.2699
     11 C          72.5454   77.4095   14.2899 C.3     1  UNL1        0.1343
     12 C          72.9266   78.3088   15.4283 C.3     1  UNL1        0.0298
     13 C          72.8811   79.9020   11.2200 C.ar    1  UNL1        0.0536
     14 C          73.5661   79.1422   10.1230 C.ar    1  UNL1        0.0054
     15 C          73.5509   79.6733    8.7202 C.ar    1  UNL1        0.0115
     16 C          72.8508   80.9642    8.4145 C.ar    1  UNL1        0.0577
     17 CL         72.8356   81.4953    7.0117 Cl      1  UNL1       -0.0822
     18 C          72.1658   81.7240    9.5115 C.ar    1  UNL1        0.0115
     19 C          72.1810   81.1929   10.9143 C.ar    1  UNL1        0.0054
     20 C          68.5499   69.8401   11.9402 C.3     1  UNL1        0.0744
     21 C          69.7120   70.7340   12.2571 C.ar    1  UNL1        0.1481
     22 N          71.1039   70.5958   11.7152 N.ar    1  UNL1       -0.1929
     23 S          71.9385   71.6994   12.2946 S.2     1  UNL1        0.0369
     24 C          71.0623   72.5196   13.1945 C.ar    1  UNL1        0.1652
     25 N          69.6863   71.9229   13.1713 N.ar    1  UNL1       -0.2190
@<TRIPOS>BOND
     1    20    21    1
     2    21    22   ar
     3    22    23   ar
     4    23    24   ar
     5    24     1    1
     6     1     2   ar
     7     2     3   ar
     8     3     4   ar
     9     4     5   ar
    10     5     6    1
    11     6     7    1
    12     7     8    1
    13     8     9   am
    14     9    10    2
    15     9    13    1
    16    13    14   ar
    17    14    15   ar
    18    15    16   ar
    19    16    17    1
    20    16    18   ar
    21    18    19   ar
    22     8    11    1
    23    11    12    1
    24    24    25   ar
    25    25    21   ar
    26     5     1   ar
    27    19    13   ar
    28    11     4    1
@<TRIPOS>MOLECULE
*****
 25 28 0 0 0
SMALL
GASTEIGER

@<TRIPOS>ATOM
      1 C          64.4796   88.9311   14.4672 C.ar    1  UNL1        0.1917
      2 N          64.8603   87.6441   15.1372 N.ar    1  UNL1       -0.1268
      3 N          64.2554   86.5171   14.3536 N.ar    1  UNL1       -0.1316
      4 C          63.5008   87.1075   13.1995 C.ar    1  UNL1        0.1615
      5 N          63.6394   88.5995   13.2697 N.ar    1  UNL1       -0.2940
      6 C          62.9826   89.4633   12.2341 C.3     1  UNL1        0.1302
      7 C          62.1872   88.8351   11.1282 C.3     1  UNL1        0.1186
      8 N          62.0487   87.3432   11.0580 N.am    1  UNL1       -0.2688
      9 C          61.2533   86.7151    9.9522 C.2     1  UNL1        0.2493
     10 O          61.1148   85.2231    9.8820 O.2     1  UNL1       -0.2699
     11 C          62.7055   86.4794   12.0937 C.3     1  UNL1        0.1343
     12 C          62.5669   84.9875   12.0235 C.3     1  UNL1        0.0298
     13 C          60.5966   87.5789    8.9167 C.ar    1  UNL1        0.0536
     14 C          59.8740   86.9488    7.7630 C.ar    1  UNL1        0.0054
     15 C          59.2172   87.8127    6.7274 C.ar    1  UNL1        0.0115
     16 C          59.2830   89.3065    6.8455 C.ar    1  UNL1        0.0577
     17 CL         58.6262   90.1704    5.8099 Cl      1  UNL1       -0.0822
     18 C          60.0056   89.9366    7.9991 C.ar    1  UNL1        0.0115
     19 C          60.6623   89.0728    9.0347 C.ar    1  UNL1        0.0054
     20 C          67.1506   93.4449   15.0770 C.3     1  UNL1        0.0744
     21 C          66.0982   92.3827   15.1963 C.ar    1  UNL1        0.1481
     22 N          64.8457   92.4708   16.0170 N.ar    1  UNL1       -0.1929
     23 S          64.0869   91.1885   15.8438 S.2     1  UNL1        0.0369
     24 C          64.8705   90.3080   14.9160 C.ar    1  UNL1        0.1652
     25 N          66.1135   91.0460   14.5159 N.ar    1  UNL1       -0.2190
@<TRIPOS>BOND
     1    20    21    1
     2    21    22   ar
     3    22    23   ar
     4    23    24   ar
     5    24     1    1
     6     1     2   ar
     7     2     3   ar
     8     3     4   ar
     9     4     5   ar
    10     5     6    1
    11     6     7    1
    12     7     8    1
    13     8     9   am
    14     9    10    2
    15     9    13    1
    16    13    14   ar
    17    14    15   ar
    18    15    16   ar
    19    16    17    1
    20    16    18   ar
    21    18    19   ar
    22     8    11    1
    23    11    12    1
    24    24    25   ar
    25    25    21   ar
    26     5     1   ar
    27    19    13   ar
    28    11     4    1
