@<TRIPOS>MOLECULE
*****
 40 45 0 0 0
SMALL
GASTEIGER

@<TRIPOS>ATOM
      1 C          61.7583   88.4908   10.6807 C.3     1  UNL1        0.0933
      2 C          61.9227   89.6411    9.7319 C.3     1  UNL1        0.0442
      3 C          61.0329   89.7546    8.5296 C.3     1  UNL1        0.0953
      4 N          59.9789   88.7180    8.2760 N.am    1  UNL1       -0.2794
      5 C          59.0891   88.8315    7.0738 C.2     1  UNL1        0.2252
      6 O          58.0351   87.7948    6.8202 O.2     1  UNL1       -0.2749
      7 C          59.8145   87.5678    9.2248 C.3     1  UNL1        0.0953
      8 C          60.7043   87.4543   10.4271 C.3     1  UNL1        0.0442
      9 N          63.8770   87.4667   13.7674 N.ar    1  UNL1       -0.2758
     10 C          62.9441   87.1198   12.6451 C.ar    1  UNL1        0.3317
     11 O          62.4024   85.7550   12.3389 O.2     1  UNL1       -0.2463
     12 N          62.6481   88.3773   11.8830 N.ar    1  UNL1       -0.2817
     13 C          63.3980   89.5015   12.5341 C.ar    1  UNL1        0.0796
     14 C          63.4873   90.9648   12.2170 C.ar    1  UNL1        0.0188
     15 C          64.3362   91.8653   13.0645 C.ar    1  UNL1        0.0016
     16 C          65.0957   91.3026   14.2292 C.ar    1  UNL1        0.0016
     17 C          65.0064   89.8392   14.5463 C.ar    1  UNL1        0.0188
     18 C          64.1575   88.9387   13.6987 C.ar    1  UNL1        0.0800
     19 C          64.4319   86.5097   14.7804 C.3     1  UNL1        0.1373
     20 C          63.4015   82.1357   14.5448 C.ar    1  UNL1        0.1387
     21 C          64.5671   82.6744   13.7694 C.ar    1  UNL1        0.0366
     22 C          64.9106   84.1324   13.8480 C.ar    1  UNL1        0.0007
     23 C          64.0884   85.0518   14.7019 C.ar    1  UNL1        0.0007
     24 C          62.9228   84.5130   15.4771 C.ar    1  UNL1        0.0007
     25 C          62.5794   83.0550   15.3986 C.ar    1  UNL1        0.0366
     26 C          62.2826   80.1518   13.2947 C.3     1  UNL1        0.2525
     27 O          63.0580   80.6777   14.4662 O.3     1  UNL1       -0.4714
     28 C          59.2535   89.9817    6.1251 C.3     1  UNL1        0.0795
     29 C          58.0628   90.8036    5.7293 C.3     1  UNL1        0.0264
     30 C          58.2273   91.9538    4.7805 C.3     1  UNL1        0.0729
     31 N          59.5825   92.2821    4.2277 N.3     1  UNL1       -0.2689
     32 C          60.7732   91.4602    4.6235 C.3     1  UNL1        0.0729
     33 C          60.6087   90.3100    5.5722 C.3     1  UNL1        0.0264
     34 C          59.7469   93.4323    3.2790 C.3     1  UNL1        0.0992
     35 C          60.3456   93.2060    1.9224 C.ar    1  UNL1       -0.0031
     36 C          59.4789   92.7482    0.7870 C.ar    1  UNL1        0.0178
     37 C          60.0776   92.5219   -0.5696 C.ar    1  UNL1        0.0986
     38 N          61.5430   92.7533   -0.7907 N.ar    1  UNL1       -0.2423
     39 C          62.4098   93.2111    0.3447 C.ar    1  UNL1        0.0986
     40 C          61.8111   93.4374    1.7013 C.ar    1  UNL1        0.0178
@<TRIPOS>BOND
     1    26    27    1
     2    27    20    1
     3    20    21   ar
     4    21    22   ar
     5    22    23   ar
     6    23    19    1
     7    19     9    1
     8     9    10   ar
     9    10    11    2
    10    10    12   ar
    11    12     1    1
    12     1     2    1
    13     2     3    1
    14     3     4    1
    15     4     5   am
    16     5     6    2
    17     5    28    1
    18    28    29    1
    19    29    30    1
    20    30    31    1
    21    31    34    1
    22    34    35    1
    23    35    36   ar
    24    36    37   ar
    25    37    38   ar
    26    38    39   ar
    27    39    40   ar
    28    31    32    1
    29    32    33    1
    30     4     7    1
    31     7     8    1
    32    12    13   ar
    33    13    14   ar
    34    14    15   ar
    35    15    16   ar
    36    16    17   ar
    37    17    18   ar
    38    23    24   ar
    39    24    25   ar
    40    25    20   ar
    41    18     9   ar
    42     8     1    1
    43    18    13   ar
    44    33    28    1
    45    40    35   ar
@<TRIPOS>MOLECULE
*****
 40 45 0 0 0
SMALL
GASTEIGER

@<TRIPOS>ATOM
      1 C          61.7213   88.7894   11.0078 C.3     1  UNL1        0.0933
      2 C          61.7839   89.9397   10.0470 C.3     1  UNL1        0.0442
      3 C          60.9939   89.8962    8.7726 C.3     1  UNL1        0.0953
      4 N          60.1414   88.7026    8.4590 N.am    1  UNL1       -0.2794
      5 C          59.3515   88.6591    7.1846 C.2     1  UNL1        0.2252
      6 O          58.4990   87.4654    6.8709 O.2     1  UNL1       -0.2749
      7 C          60.0789   87.5524    9.4197 C.3     1  UNL1        0.0953
      8 C          60.8688   87.5958   10.6941 C.3     1  UNL1        0.0442
      9 N          63.6051   89.6380   14.2936 N.ar    1  UNL1       -0.2758
     10 C          62.7785   90.0531   13.1127 C.ar    1  UNL1        0.3317
     11 O          62.3027   91.4440   12.8147 O.2     1  UNL1       -0.2463
     12 N          62.5113   88.8329   12.2822 N.ar    1  UNL1       -0.2817
     13 C          63.1727   87.6638   12.9498 C.ar    1  UNL1        0.0796
     14 C          63.2467   86.2104   12.5864 C.ar    1  UNL1        0.0188
     15 C          63.9968   85.2546   13.4660 C.ar    1  UNL1        0.0016
     16 C          64.6728   85.7522   14.7092 C.ar    1  UNL1        0.0016
     17 C          64.5988   87.2056   15.0726 C.ar    1  UNL1        0.0188
     18 C          63.8487   88.1614   14.1930 C.ar    1  UNL1        0.0800
     19 C          64.1010   90.5411   15.3838 C.3     1  UNL1        0.1373
     20 C          68.0026   92.7289   14.8930 C.ar    1  UNL1        0.1387
     21 C          67.1445   92.9865   16.0960 C.ar    1  UNL1        0.0366
     22 C          65.8439   92.2572   16.2596 C.ar    1  UNL1        0.0007
     23 C          65.4015   91.2703   15.2202 C.ar    1  UNL1        0.0007
     24 C          66.2596   91.0128   14.0172 C.ar    1  UNL1        0.0007
     25 C          67.5602   91.7420   13.8536 C.ar    1  UNL1        0.0366
     26 C          69.9628   94.0912   15.9187 C.3     1  UNL1        0.2525
     27 O          69.3031   93.4582   14.7294 O.3     1  UNL1       -0.4714
     28 C          59.4141   89.8093    6.2239 C.3     1  UNL1        0.0795
     29 C          58.1667   90.5683    5.8802 C.3     1  UNL1        0.0264
     30 C          58.2294   91.7186    4.9194 C.3     1  UNL1        0.0729
     31 N          59.5395   92.1099    4.3024 N.3     1  UNL1       -0.2689
     32 C          60.7868   91.3509    4.6460 C.3     1  UNL1        0.0729
     33 C          60.7241   90.2007    5.6068 C.3     1  UNL1        0.0264
     34 C          59.6021   93.2601    3.3417 C.3     1  UNL1        0.0992
     35 C          60.2687   93.0888    2.0089 C.ar    1  UNL1       -0.0031
     36 C          61.7462   93.3108    1.8753 C.ar    1  UNL1        0.0178
     37 C          62.4128   93.1395    0.5426 C.ar    1  UNL1        0.0986
     38 N          61.6020   92.7462   -0.6566 N.ar    1  UNL1       -0.2423
     39 C          60.1246   92.5243   -0.5229 C.ar    1  UNL1        0.0986
     40 C          59.4579   92.6956    0.8098 C.ar    1  UNL1        0.0178
@<TRIPOS>BOND
     1    26    27    1
     2    27    20    1
     3    20    21   ar
     4    21    22   ar
     5    22    23   ar
     6    23    19    1
     7    19     9    1
     8     9    10   ar
     9    10    11    2
    10    10    12   ar
    11    12     1    1
    12     1     2    1
    13     2     3    1
    14     3     4    1
    15     4     5   am
    16     5     6    2
    17     5    28    1
    18    28    29    1
    19    29    30    1
    20    30    31    1
    21    31    34    1
    22    34    35    1
    23    35    36   ar
    24    36    37   ar
    25    37    38   ar
    26    38    39   ar
    27    39    40   ar
    28    31    32    1
    29    32    33    1
    30     4     7    1
    31     7     8    1
    32    12    13   ar
    33    13    14   ar
    34    14    15   ar
    35    15    16   ar
    36    16    17   ar
    37    17    18   ar
    38    23    24   ar
    39    24    25   ar
    40    25    20   ar
    41    18     9   ar
    42     8     1    1
    43    18    13   ar
    44    33    28    1
    45    40    35   ar
@<TRIPOS>MOLECULE
*****
 40 45 0 0 0
SMALL
GASTEIGER

@<TRIPOS>ATOM
      1 C          60.7146   92.3844    3.2682 C.3     1  UNL1        0.0933
      2 C          61.4165   91.6193    4.3509 C.3     1  UNL1        0.0442
      3 C          60.6202   90.8489    5.3619 C.3     1  UNL1        0.0953
      4 N          59.1219   90.8436    5.2904 N.am    1  UNL1       -0.2794
      5 C          58.3255   90.0732    6.3015 C.2     1  UNL1        0.2252
      6 O          56.8272   90.0678    6.2300 O.2     1  UNL1       -0.2749
      7 C          58.4200   91.6086    4.2078 C.3     1  UNL1        0.0953
      8 C          59.2164   92.3790    3.1967 C.3     1  UNL1        0.0442
      9 N          63.3118   93.8684    0.7948 N.ar    1  UNL1       -0.2758
     10 C          62.9100   92.8440    1.8142 C.ar    1  UNL1        0.3317
     11 O          63.7583   91.7082    2.3047 O.2     1  UNL1       -0.2463
     12 N          61.5110   93.1548    2.2571 N.ar    1  UNL1       -0.2817
     13 C          61.0481   94.3712    1.5114 C.ar    1  UNL1        0.0796
     14 C          59.7570   95.1342    1.5386 C.ar    1  UNL1        0.0188
     15 C          59.5789   96.3383    0.6620 C.ar    1  UNL1        0.0016
     16 C          60.6919   96.7793   -0.2418 C.ar    1  UNL1        0.0016
     17 C          61.9830   96.0163   -0.2689 C.ar    1  UNL1        0.0188
     18 C          62.1611   94.8122    0.6077 C.ar    1  UNL1        0.0800
     19 C          64.6324   93.9369    0.0868 C.3     1  UNL1        0.1373
     20 C          64.9748   96.1253   -3.8302 C.ar    1  UNL1        0.1387
     21 C          64.3246   94.7745   -3.7802 C.ar    1  UNL1        0.0366
     22 C          64.2105   94.0450   -2.4745 C.ar    1  UNL1        0.0007
     23 C          64.7466   94.6663   -1.2188 C.ar    1  UNL1        0.0007
     24 C          65.3967   96.0172   -1.2689 C.ar    1  UNL1        0.0007
     25 C          65.5108   96.7467   -2.5746 C.ar    1  UNL1        0.0366
     26 C          66.3531   96.7633   -5.9382 C.3     1  UNL1        0.2525
     27 O          65.0889   96.8548   -5.1359 O.3     1  UNL1       -0.4714
     28 C          59.0274   89.3082    7.3840 C.3     1  UNL1        0.0795
     29 C          59.7657   90.0426    8.4637 C.3     1  UNL1        0.0264
     30 C          60.4676   89.2775    9.5463 C.3     1  UNL1        0.0729
     31 N          60.4314   87.7779    9.5492 N.3     1  UNL1       -0.2689
     32 C          59.6932   87.0435    8.4696 C.3     1  UNL1        0.0729
     33 C          58.9912   87.8086    7.3870 C.3     1  UNL1        0.0264
     34 C          61.1333   87.0129   10.6317 C.3     1  UNL1        0.0992
     35 C          62.0249   85.8597   10.2779 C.ar    1  UNL1       -0.0031
     36 C          62.3580   84.8247   11.3113 C.ar    1  UNL1        0.0178
     37 C          63.2496   83.6715   10.9575 C.ar    1  UNL1        0.0986
     38 N          63.8080   83.5532    9.5704 N.ar    1  UNL1       -0.2423
     39 C          63.4748   84.5882    8.5370 C.ar    1  UNL1        0.0986
     40 C          62.5833   85.7415    8.8908 C.ar    1  UNL1        0.0178
@<TRIPOS>BOND
     1    26    27    1
     2    27    20    1
     3    20    21   ar
     4    21    22   ar
     5    22    23   ar
     6    23    19    1
     7    19     9    1
     8     9    10   ar
     9    10    11    2
    10    10    12   ar
    11    12     1    1
    12     1     2    1
    13     2     3    1
    14     3     4    1
    15     4     5   am
    16     5     6    2
    17     5    28    1
    18    28    29    1
    19    29    30    1
    20    30    31    1
    21    31    34    1
    22    34    35    1
    23    35    36   ar
    24    36    37   ar
    25    37    38   ar
    26    38    39   ar
    27    39    40   ar
    28    31    32    1
    29    32    33    1
    30     4     7    1
    31     7     8    1
    32    12    13   ar
    33    13    14   ar
    34    14    15   ar
    35    15    16   ar
    36    16    17   ar
    37    17    18   ar
    38    23    24   ar
    39    24    25   ar
    40    25    20   ar
    41    18     9   ar
    42     8     1    1
    43    18    13   ar
    44    33    28    1
    45    40    35   ar
@<TRIPOS>MOLECULE
*****
 40 45 0 0 0
SMALL
GASTEIGER

@<TRIPOS>ATOM
      1 C          60.4564   92.2784    3.3293 C.3     1  UNL1        0.0933
      2 C          61.2760   91.3433    4.1684 C.3     1  UNL1        0.0442
      3 C          60.6145   90.5070    5.2233 C.3     1  UNL1        0.0953
      4 N          59.1334   90.6056    5.4392 N.am    1  UNL1       -0.2794
      5 C          58.4719   89.7692    6.4942 C.2     1  UNL1        0.2252
      6 O          56.9908   89.8679    6.7101 O.2     1  UNL1       -0.2749
      7 C          58.3138   91.5407    4.6002 C.3     1  UNL1        0.0953
      8 C          58.9754   92.3771    3.5453 C.3     1  UNL1        0.0442
      9 N          62.8050   94.2607    0.9588 N.ar    1  UNL1       -0.2758
     10 C          62.5896   93.3779    2.1522 C.ar    1  UNL1        0.3317
     11 O          63.6581   92.8509    3.0635 O.2     1  UNL1       -0.2463
     12 N          61.1179   93.1148    2.2744 N.ar    1  UNL1       -0.2817
     13 C          60.4238   93.8349    1.1565 C.ar    1  UNL1        0.0796
     14 C          58.9771   93.9373    0.7739 C.ar    1  UNL1        0.0188
     15 C          58.5731   94.7478   -0.4218 C.ar    1  UNL1        0.0016
     16 C          59.6158   95.4560   -1.2349 C.ar    1  UNL1        0.0016
     17 C          61.0626   95.3536   -0.8523 C.ar    1  UNL1        0.0188
     18 C          61.4666   94.5431    0.3434 C.ar    1  UNL1        0.0800
     19 C          64.1269   94.7713    0.4670 C.3     1  UNL1        0.1373
     20 C          64.8605   95.2295   -3.9491 C.ar    1  UNL1        0.1387
     21 C          65.2582   96.3254   -3.0051 C.ar    1  UNL1        0.0366
     22 C          65.0136   96.1726   -1.5331 C.ar    1  UNL1        0.0007
     23 C          64.3715   94.9240   -1.0050 C.ar    1  UNL1        0.0007
     24 C          63.9739   93.8282   -1.9490 C.ar    1  UNL1        0.0007
     25 C          64.2184   93.9810   -3.4210 C.ar    1  UNL1        0.0366
     26 C          64.4625   94.4349   -6.3905 C.3     1  UNL1        0.2525
     27 O          65.1051   95.3823   -5.4211 O.3     1  UNL1       -0.4714
     28 C          59.2915   88.8342    7.3331 C.3     1  UNL1        0.0795
     29 C          59.2958   87.3647    7.0322 C.3     1  UNL1        0.0264
     30 C          60.1156   86.4297    7.8712 C.3     1  UNL1        0.0729
     31 N          60.9309   86.9642    9.0112 N.3     1  UNL1       -0.2689
     32 C          60.9265   88.4337    9.3122 C.3     1  UNL1        0.0729
     33 C          60.1069   89.3687    8.4731 C.3     1  UNL1        0.0264
     34 C          61.7505   86.0292    9.8502 C.3     1  UNL1        0.0992
     35 C          62.4131   86.5282   11.0999 C.ar    1  UNL1       -0.0031
     36 C          62.6425   87.9981   11.2917 C.ar    1  UNL1        0.0178
     37 C          63.3051   88.4970   12.5415 C.ar    1  UNL1        0.0986
     38 N          63.7383   87.5261   13.5995 N.ar    1  UNL1       -0.2423
     39 C          63.5089   86.0562   13.4078 C.ar    1  UNL1        0.0986
     40 C          62.8463   85.5572   12.1580 C.ar    1  UNL1        0.0178
@<TRIPOS>BOND
     1    26    27    1
     2    27    20    1
     3    20    21   ar
     4    21    22   ar
     5    22    23   ar
     6    23    19    1
     7    19     9    1
     8     9    10   ar
     9    10    11    2
    10    10    12   ar
    11    12     1    1
    12     1     2    1
    13     2     3    1
    14     3     4    1
    15     4     5   am
    16     5     6    2
    17     5    28    1
    18    28    29    1
    19    29    30    1
    20    30    31    1
    21    31    34    1
    22    34    35    1
    23    35    36   ar
    24    36    37   ar
    25    37    38   ar
    26    38    39   ar
    27    39    40   ar
    28    31    32    1
    29    32    33    1
    30     4     7    1
    31     7     8    1
    32    12    13   ar
    33    13    14   ar
    34    14    15   ar
    35    15    16   ar
    36    16    17   ar
    37    17    18   ar
    38    23    24   ar
    39    24    25   ar
    40    25    20   ar
    41    18     9   ar
    42     8     1    1
    43    18    13   ar
    44    33    28    1
    45    40    35   ar
@<TRIPOS>MOLECULE
*****
 40 45 0 0 0
SMALL
GASTEIGER

@<TRIPOS>ATOM
      1 C          61.1552   92.3487    2.6396 C.3     1  UNL1        0.0933
      2 C          61.7883   91.5479    3.7387 C.3     1  UNL1        0.0442
      3 C          60.9360   90.9565    4.8222 C.3     1  UNL1        0.0953
      4 N          59.4508   91.1658    4.8066 N.am    1  UNL1       -0.2794
      5 C          58.5986   90.5744    5.8901 C.2     1  UNL1        0.2252
      6 O          57.1134   90.7838    5.8745 O.2     1  UNL1       -0.2749
      7 C          58.8178   91.9666    3.7075 C.3     1  UNL1        0.0953
      8 C          59.6700   92.5580    2.6240 C.3     1  UNL1        0.0442
      9 N          62.9151   93.4859   -0.6277 N.ar    1  UNL1       -0.2758
     10 C          61.8550   92.6983    0.0836 C.ar    1  UNL1        0.3317
     11 O          60.8236   91.8226   -0.5640 O.2     1  UNL1       -0.2463
     12 N          62.0074   92.9401    1.5561 N.ar    1  UNL1       -0.2817
     13 C          63.1617   93.8772    1.7549 C.ar    1  UNL1        0.0796
     14 C          63.7745   94.4668    2.9905 C.ar    1  UNL1        0.0188
     15 C          64.9482   95.3938    2.8765 C.ar    1  UNL1        0.0016
     16 C          65.5091   95.7312    1.5268 C.ar    1  UNL1        0.0016
     17 C          64.8964   95.1415    0.2912 C.ar    1  UNL1        0.0188
     18 C          63.7227   94.2145    0.4053 C.ar    1  UNL1        0.0800
     19 C          63.1299   93.5361   -2.1114 C.3     1  UNL1        0.1373
     20 C          60.0186   95.4022   -4.7736 C.ar    1  UNL1        0.1387
     21 C          61.1825   94.6733   -5.3771 C.ar    1  UNL1        0.0366
     22 C          62.2196   94.0513   -4.4896 C.ar    1  UNL1        0.0007
     23 C          62.0928   94.1581   -2.9987 C.ar    1  UNL1        0.0007
     24 C          60.9289   94.8870   -2.3954 C.ar    1  UNL1        0.0007
     25 C          59.8918   95.5090   -3.2829 C.ar    1  UNL1        0.0366
     26 C          58.5779   95.3425   -6.9349 C.3     1  UNL1        0.2525
     27 O          58.9816   96.0242   -5.6611 O.3     1  UNL1       -0.4714
     28 C          59.2317   89.7737    6.9892 C.3     1  UNL1        0.0795
     29 C          59.9691   90.4692    8.0948 C.3     1  UNL1        0.0264
     30 C          60.6022   89.6683    9.1939 C.3     1  UNL1        0.0729
     31 N          60.4978   88.1719    9.1873 N.3     1  UNL1       -0.2689
     32 C          59.7603   87.4764    8.0817 C.3     1  UNL1        0.0729
     33 C          59.1273   88.2773    6.9827 C.3     1  UNL1        0.0264
     34 C          61.1309   87.3712   10.2863 C.3     1  UNL1        0.0992
     35 C          61.9755   86.1771    9.9535 C.ar    1  UNL1       -0.0031
     36 C          62.4487   85.9619    8.5465 C.ar    1  UNL1        0.0178
     37 C          63.2933   84.7677    8.2136 C.ar    1  UNL1        0.0986
     38 N          63.6646   83.7889    9.2878 N.ar    1  UNL1       -0.2423
     39 C          63.1913   84.0041   10.6948 C.ar    1  UNL1        0.0986
     40 C          62.3468   85.1982   11.0277 C.ar    1  UNL1        0.0178
@<TRIPOS>BOND
     1    26    27    1
     2    27    20    1
     3    20    21   ar
     4    21    22   ar
     5    22    23   ar
     6    23    19    1
     7    19     9    1
     8     9    10   ar
     9    10    11    2
    10    10    12   ar
    11    12     1    1
    12     1     2    1
    13     2     3    1
    14     3     4    1
    15     4     5   am
    16     5     6    2
    17     5    28    1
    18    28    29    1
    19    29    30    1
    20    30    31    1
    21    31    34    1
    22    34    35    1
    23    35    36   ar
    24    36    37   ar
    25    37    38   ar
    26    38    39   ar
    27    39    40   ar
    28    31    32    1
    29    32    33    1
    30     4     7    1
    31     7     8    1
    32    12    13   ar
    33    13    14   ar
    34    14    15   ar
    35    15    16   ar
    36    16    17   ar
    37    17    18   ar
    38    23    24   ar
    39    24    25   ar
    40    25    20   ar
    41    18     9   ar
    42     8     1    1
    43    18    13   ar
    44    33    28    1
    45    40    35   ar
