@<TRIPOS>MOLECULE
*****
 37 40 0 0 0
SMALL
GASTEIGER

@<TRIPOS>ATOM
      1 C          64.1421   90.5022   13.6922 C.3     1  UNL1        0.1225
      2 O          63.6303   91.3781   12.5873 O.3     1  UNL1       -0.3559
      3 C          62.9155   90.7691   11.4175 C.3     1  UNL1        0.1441
      4 C          62.7126   89.2844   11.3527 C.3     1  UNL1        0.0589
      5 C          63.2244   88.4085   12.4576 C.3     1  UNL1        0.1466
      6 C          63.0214   86.9237   12.3928 C.ar    1  UNL1        0.0618
      7 C          62.3067   86.3148   11.2231 C.ar    1  UNL1        0.1407
      8 F          61.6819   86.8722    9.9785 F       1  UNL1       -0.2043
      9 C          62.1037   84.8300   11.1582 C.ar    1  UNL1        0.0319
     10 C          62.6156   83.9541   12.2632 C.ar    1  UNL1        0.0351
     11 C          63.3303   84.5630   13.4329 C.ar    1  UNL1        0.1737
     12 F          63.8421   83.6872   14.5379 F       1  UNL1       -0.2010
     13 C          63.5333   86.0479   13.4977 C.ar    1  UNL1        0.1655
     14 O          64.2480   86.6568   14.6675 O.3     1  UNL1       -0.4732
     15 C          64.4510   88.1415   14.7323 C.3     1  UNL1        0.2098
     16 C          63.9392   89.0175   13.6274 C.3     1  UNL1        0.0957
     17 S          62.5096   87.7996   11.2879 S.O2    1  UNL1        0.0094
     18 O          62.9234   87.6807   10.6170 O.2     1  UNL1       -0.1684
     19 O          61.1122   87.5840   11.7885 O.2     1  UNL1       -0.1684
     20 C          61.7948   87.1907   10.1181 C.ar    1  UNL1        0.1059
     21 C          62.5655   86.4232    9.0850 C.ar    1  UNL1        0.0192
     22 C          61.8507   85.8143    7.9153 C.ar    1  UNL1        0.0127
     23 C          60.3653   85.9729    7.7786 C.ar    1  UNL1        0.0578
     24 CL         59.6505   85.3640    6.6088 Cl      1  UNL1       -0.0822
     25 C          59.5948   86.7404    8.8116 C.ar    1  UNL1        0.0127
     26 C          60.3096   87.3493    9.9814 C.ar    1  UNL1        0.0192
     27 C          64.8569   91.1111   14.8620 C.3     1  UNL1        0.0550
     28 C          66.2320   91.6837   14.6854 C.3     1  UNL1        0.1534
     29 S          66.4373   92.8862   13.8126 S.O2    1  UNL1       -0.0085
     30 O          67.0707   92.0183   12.7659 O.2     1  UNL1       -0.1729
     31 O          65.8039   93.7541   14.8593 O.2     1  UNL1       -0.1729
     32 C          66.6427   94.0887   12.9398 C.3     1  UNL1        0.1678
     33 C          66.3236   94.0162   11.4759 C.3     1  UNL1        0.0942
     34 N          67.3454   94.4419   10.4636 N.3     1  UNL1       -0.2960
     35 H          67.0223   95.3273   10.0735 H       1  UNL1        0.1233
     36 C          68.4859   92.3096    9.5136 C.3     1  UNL1        0.0185
     37 C          67.6678   93.5490    9.3023 C.3     1  UNL1        0.0686
@<TRIPOS>BOND
     1    36    37    1
     2    37    34    1
     3    34    33    1
     4    33    32    1
     5    32    29    1
     6    29    30    2
     7    29    31    2
     8    29    28    1
     9    28    27    1
    10     1    27    1
    11     1     2    1
    12     2     3    1
    13     3     4    1
    14     4     5    1
    15     5    17    1
    16    17    18    2
    17    17    19    2
    18    17    20    1
    19    20    21   ar
    20    21    22   ar
    21    22    23   ar
    22    23    24    1
    23    23    25   ar
    24    25    26   ar
    25     5     6    1
    26     6     7   ar
    27     7     8    1
    28     7     9   ar
    29     9    10   ar
    30    10    11   ar
    31    11    12    1
    32    11    13   ar
    33    13    14    1
    34    14    15    1
    35    16    15    1
    36    16     1    1
    37    16     5    1
    38    26    20   ar
    39    13     6   ar
    40    34    35    1
@<TRIPOS>MOLECULE
*****
 37 40 0 0 0
SMALL
GASTEIGER

@<TRIPOS>ATOM
      1 C          63.2189   90.0883   13.0299 C.3     1  UNL1        0.1225
      2 O          62.7827   90.8449   11.8104 O.3     1  UNL1       -0.3559
      3 C          62.3762   90.1020   10.5723 C.3     1  UNL1        0.1441
      4 C          62.4060   88.6024   10.5537 C.3     1  UNL1        0.0589
      5 C          62.8422   87.8458   11.7732 C.3     1  UNL1        0.1466
      6 C          62.8720   86.3462   11.7546 C.ar    1  UNL1        0.0618
      7 C          62.4655   85.6032   10.5165 C.ar    1  UNL1        0.1407
      8 F          61.9896   86.0242    9.1577 F       1  UNL1       -0.2043
      9 C          62.4952   84.1037   10.4979 C.ar    1  UNL1        0.0319
     10 C          62.9315   83.3470   11.7174 C.ar    1  UNL1        0.0351
     11 C          63.3379   84.0899   12.9555 C.ar    1  UNL1        0.1737
     12 F          63.7742   83.3332   14.1750 F       1  UNL1       -0.2010
     13 C          63.3082   85.5895   12.9741 C.ar    1  UNL1        0.1655
     14 O          63.7147   86.3324   14.2121 O.3     1  UNL1       -0.4732
     15 C          63.6849   87.8320   14.2308 C.3     1  UNL1        0.2098
     16 C          63.2487   88.5887   13.0112 C.3     1  UNL1        0.0957
     17 S          62.4357   87.1029   10.5351 S.O2    1  UNL1        0.0094
     18 O          62.8863   87.1874    9.8829 O.2     1  UNL1       -0.1684
     19 O          61.1959   86.3649   10.9452 O.2     1  UNL1       -0.1684
     20 C          62.0292   86.3600    9.2970 C.ar    1  UNL1        0.1059
     21 C          63.0615   85.6379    8.4827 C.ar    1  UNL1        0.0192
     22 C          62.6551   84.8949    7.2446 C.ar    1  UNL1        0.0127
     23 C          61.2163   84.8741    6.8208 C.ar    1  UNL1        0.0578
     24 CL         60.8098   84.1312    5.5828 Cl      1  UNL1       -0.0822
     25 C          60.1840   85.5962    7.6351 C.ar    1  UNL1        0.0127
     26 C          60.5905   86.3391    8.8732 C.ar    1  UNL1        0.0192
     27 C          63.6254   90.8312   14.2679 C.3     1  UNL1        0.0550
     28 C          65.0195   90.6905   14.8033 C.3     1  UNL1        0.1534
     29 S          65.8822   91.9052   14.9774 S.O2    1  UNL1       -0.0085
     30 O          66.7843   91.4216   13.8808 O.2     1  UNL1       -0.1729
     31 O          64.9802   92.3887   16.0740 O.2     1  UNL1       -0.1729
     32 C          66.7449   93.1198   15.1515 C.3     1  UNL1        0.1678
     33 C          66.8647   94.1202   14.0403 C.3     1  UNL1        0.0942
     34 N          65.8143   94.1831   12.9713 N.3     1  UNL1       -0.2960
     35 H          65.0994   93.4996   13.2204 H       1  UNL1        0.1233
     36 C          65.5773   92.7607   10.8101 C.3     1  UNL1        0.0185
     37 C          66.1833   93.9220   11.5410 C.3     1  UNL1        0.0686
@<TRIPOS>BOND
     1    36    37    1
     2    37    34    1
     3    34    33    1
     4    33    32    1
     5    32    29    1
     6    29    30    2
     7    29    31    2
     8    29    28    1
     9    28    27    1
    10     1    27    1
    11     1     2    1
    12     2     3    1
    13     3     4    1
    14     4     5    1
    15     5    17    1
    16    17    18    2
    17    17    19    2
    18    17    20    1
    19    20    21   ar
    20    21    22   ar
    21    22    23   ar
    22    23    24    1
    23    23    25   ar
    24    25    26   ar
    25     5     6    1
    26     6     7   ar
    27     7     8    1
    28     7     9   ar
    29     9    10   ar
    30    10    11   ar
    31    11    12    1
    32    11    13   ar
    33    13    14    1
    34    14    15    1
    35    16    15    1
    36    16     1    1
    37    16     5    1
    38    26    20   ar
    39    13     6   ar
    40    34    35    1
@<TRIPOS>MOLECULE
*****
 37 40 0 0 0
SMALL
GASTEIGER

@<TRIPOS>ATOM
      1 C          63.9696   89.3512   14.2046 C.3     1  UNL1        0.1225
      2 O          64.5982   88.3738   15.1530 O.3     1  UNL1       -0.3559
      3 C          64.5392   86.9033   14.8629 C.3     1  UNL1        0.1441
      4 C          63.8515   86.4102   13.6244 C.3     1  UNL1        0.0589
      5 C          63.2229   87.3876   12.6760 C.3     1  UNL1        0.1466
      6 C          62.5351   86.8945   11.4375 C.ar    1  UNL1        0.0618
      7 C          62.4761   85.4240   11.1474 C.ar    1  UNL1        0.1407
      8 F          62.9817   84.2014   11.8541 F       1  UNL1       -0.2043
      9 C          61.7884   84.9309    9.9089 C.ar    1  UNL1        0.0319
     10 C          61.1597   85.9083    8.9604 C.ar    1  UNL1        0.0351
     11 C          61.2188   87.3788    9.2505 C.ar    1  UNL1        0.1737
     12 F          60.5901   88.3561    8.3021 F       1  UNL1       -0.2010
     13 C          61.9065   87.8719   10.4891 C.ar    1  UNL1        0.1655
     14 O          61.9656   89.3424   10.7791 O.3     1  UNL1       -0.4732
     15 C          62.6533   89.8355   12.0176 C.3     1  UNL1        0.2098
     16 C          63.2819   88.8581   12.9661 C.3     1  UNL1        0.0957
     17 S          63.1638   85.9171   12.3859 S.O2    1  UNL1        0.0094
     18 O          63.8522   85.5206   12.3202 O.2     1  UNL1       -0.1684
     19 O          61.6955   85.6223   12.3020 O.2     1  UNL1       -0.1684
     20 C          63.1047   84.4466   12.0959 C.ar    1  UNL1        0.1059
     21 C          63.9023   83.8731   10.9622 C.ar    1  UNL1        0.0192
     22 C          63.8433   82.4026   10.6721 C.ar    1  UNL1        0.0127
     23 C          62.9866   81.5056   11.5157 C.ar    1  UNL1        0.0578
     24 CL         62.9276   80.0351   11.2256 Cl      1  UNL1       -0.0822
     25 C          62.1891   82.0790   12.6493 C.ar    1  UNL1        0.0127
     26 C          62.2482   83.5495   12.9394 C.ar    1  UNL1        0.0192
     27 C          64.0287   90.8217   14.4947 C.3     1  UNL1        0.0550
     28 C          65.3434   91.4720   14.8086 C.3     1  UNL1        0.1534
     29 S          66.2259   91.9550   13.6961 S.O2    1  UNL1       -0.0085
     30 O          65.0160   92.4026   12.9307 O.2     1  UNL1       -0.1729
     31 O          67.4358   91.5074   14.4614 O.2     1  UNL1       -0.1729
     32 C          67.1084   92.4381   12.5835 C.3     1  UNL1        0.1678
     33 C          66.4995   92.9581   11.3151 C.3     1  UNL1        0.0942
     34 N          67.1866   94.0462   10.5444 N.3     1  UNL1       -0.2960
     35 H          66.4721   94.7337   10.3050 H       1  UNL1        0.1233
     36 C          68.5857   92.3874    9.1160 C.3     1  UNL1        0.0185
     37 C          67.9164   93.7203    9.2752 C.3     1  UNL1        0.0686
@<TRIPOS>BOND
     1    36    37    1
     2    37    34    1
     3    34    33    1
     4    33    32    1
     5    32    29    1
     6    29    30    2
     7    29    31    2
     8    29    28    1
     9    28    27    1
    10     1    27    1
    11     1     2    1
    12     2     3    1
    13     3     4    1
    14     4     5    1
    15     5    17    1
    16    17    18    2
    17    17    19    2
    18    17    20    1
    19    20    21   ar
    20    21    22   ar
    21    22    23   ar
    22    23    24    1
    23    23    25   ar
    24    25    26   ar
    25     5     6    1
    26     6     7   ar
    27     7     8    1
    28     7     9   ar
    29     9    10   ar
    30    10    11   ar
    31    11    12    1
    32    11    13   ar
    33    13    14    1
    34    14    15    1
    35    16    15    1
    36    16     1    1
    37    16     5    1
    38    26    20   ar
    39    13     6   ar
    40    34    35    1
@<TRIPOS>MOLECULE
*****
 37 40 0 0 0
SMALL
GASTEIGER

@<TRIPOS>ATOM
      1 C          59.8461   88.6547    8.0277 C.3     1  UNL1        0.1225
      2 O          59.5573   87.3007    7.4505 O.3     1  UNL1       -0.3559
      3 C          60.1483   86.0749    8.0814 C.3     1  UNL1        0.1441
      4 C          61.0281   86.2030    9.2894 C.3     1  UNL1        0.0589
      5 C          61.3169   87.5570    9.8666 C.3     1  UNL1        0.1466
      6 C          62.1967   87.6852   11.0747 C.ar    1  UNL1        0.0618
      7 C          62.7877   86.4594   11.7056 C.ar    1  UNL1        0.1407
      8 F          62.7129   84.9922   11.4024 F       1  UNL1       -0.2043
      9 C          63.6675   86.5875   12.9137 C.ar    1  UNL1        0.0319
     10 C          63.9564   87.9416   13.4909 C.ar    1  UNL1        0.0351
     11 C          63.3654   89.1675   12.8601 C.ar    1  UNL1        0.1737
     12 F          63.6542   90.5215   13.4373 F       1  UNL1       -0.2010
     13 C          62.4856   89.0392   11.6519 C.ar    1  UNL1        0.1655
     14 O          61.8946   90.2651   11.0211 O.3     1  UNL1       -0.4732
     15 C          61.0148   90.1370    9.8130 C.3     1  UNL1        0.2098
     16 C          60.7259   88.7829    9.2357 C.3     1  UNL1        0.0957
     17 S          61.9079   86.3312   10.4975 S.O2    1  UNL1        0.0094
     18 O          62.4786   85.9430   10.0986 O.2     1  UNL1       -0.1684
     19 O          61.1757   86.2046   11.8005 O.2     1  UNL1       -0.1684
     20 C          62.4989   85.1053   11.1284 C.ar    1  UNL1        0.1059
     21 C          63.6259   84.3827   10.4518 C.ar    1  UNL1        0.0192
     22 C          64.2169   83.1569   11.0827 C.ar    1  UNL1        0.0127
     23 C          63.6808   82.6536   12.3901 C.ar    1  UNL1        0.0578
     24 CL         64.2718   81.4277   13.0210 Cl      1  UNL1       -0.0822
     25 C          62.5538   83.3762   13.0666 C.ar    1  UNL1        0.0127
     26 C          61.9629   84.6020   12.4358 C.ar    1  UNL1        0.0192
     27 C          59.2551   89.8806    7.3968 C.3     1  UNL1        0.0550
     28 C          59.0225   89.9239    5.9156 C.3     1  UNL1        0.1534
     29 S          59.1176   91.2272    5.1792 S.O2    1  UNL1       -0.0085
     30 O          60.5936   91.0223    5.0072 O.2     1  UNL1       -0.1729
     31 O          57.6417   91.4322    5.3513 O.2     1  UNL1       -0.1729
     32 C          59.2128   92.5306    4.4429 C.3     1  UNL1        0.1678
     33 C          59.6989   92.5567    3.0241 C.3     1  UNL1        0.0942
     34 N          61.0038   93.2169    2.6904 N.3     1  UNL1       -0.2960
     35 H          60.7839   94.0286    2.1131 H       1  UNL1        0.1233
     36 C          63.1035   91.6880    2.7458 C.3     1  UNL1        0.0185
     37 C          62.0703   92.4481    1.9683 C.3     1  UNL1        0.0686
@<TRIPOS>BOND
     1    36    37    1
     2    37    34    1
     3    34    33    1
     4    33    32    1
     5    32    29    1
     6    29    30    2
     7    29    31    2
     8    29    28    1
     9    28    27    1
    10     1    27    1
    11     1     2    1
    12     2     3    1
    13     3     4    1
    14     4     5    1
    15     5    17    1
    16    17    18    2
    17    17    19    2
    18    17    20    1
    19    20    21   ar
    20    21    22   ar
    21    22    23   ar
    22    23    24    1
    23    23    25   ar
    24    25    26   ar
    25     5     6    1
    26     6     7   ar
    27     7     8    1
    28     7     9   ar
    29     9    10   ar
    30    10    11   ar
    31    11    12    1
    32    11    13   ar
    33    13    14    1
    34    14    15    1
    35    16    15    1
    36    16     1    1
    37    16     5    1
    38    26    20   ar
    39    13     6   ar
    40    34    35    1
