@<TRIPOS>MOLECULE
*****
 21 23 0 0 0
SMALL
GASTEIGER

@<TRIPOS>ATOM
      1 C          63.8998   90.6179   12.7420 C.ar    1  UNL1        0.0537
      2 C          64.3861   91.7559   11.8945 C.ar    1  UNL1        0.1019
      3 N          65.5931   92.5413   12.3142 N.ar    1  UNL1       -0.2422
      4 C          66.3139   92.1885   13.5815 C.ar    1  UNL1        0.0989
      5 C          65.8277   91.0504   14.4290 C.ar    1  UNL1        0.0208
      6 C          64.6206   90.2651   14.0092 C.ar    1  UNL1        0.0061
      7 C          64.1343   89.1270   14.8568 C.ar    1  UNL1        0.0033
      8 C          64.4516   87.7134   14.4679 C.ar    1  UNL1        0.0207
      9 C          63.9653   86.5753   15.3154 C.ar    1  UNL1        0.0989
     10 N          63.1618   86.8507   16.5517 N.ar    1  UNL1       -0.2423
     11 C          62.8445   88.2643   16.9406 C.ar    1  UNL1        0.0989
     12 C          63.3308   89.4024   16.0930 C.ar    1  UNL1        0.0207
     13 C          60.4015   89.0627   12.1028 C.ar    1  UNL1        0.1385
     14 C          61.2690   88.1852   11.2498 C.ar    1  UNL1        0.0375
     15 C          62.6850   88.6610   11.3854 C.ar    1  UNL1        0.0404
     16 C          62.6927   89.8325   12.3222 C.ar    1  UNL1        0.1464
     17 O          61.2814   90.0807   12.7655 O.2     1  UNL1       -0.4563
     18 N          58.3328   88.5760   13.5973 N.3     1  UNL1       -0.3148
     19 C          58.9150   88.9430   12.2645 C.3     1  UNL1        0.1307
     20 H          57.3159   88.5401   13.5258 H       1  UNL1        0.1192
     21 H          58.6004   89.2757   14.2896 H       1  UNL1        0.1192
@<TRIPOS>BOND
     1    18    19    1
     2    19    13    1
     3    13    14   ar
     4    14    15   ar
     5    15    16   ar
     6    16     1    1
     7     1     2   ar
     8     2     3   ar
     9     3     4   ar
    10     4     5   ar
    11     5     6   ar
    12     6     7    1
    13     7     8   ar
    14     8     9   ar
    15     9    10   ar
    16    10    11   ar
    17    11    12   ar
    18    16    17   ar
    19    17    13   ar
    20     6     1   ar
    21    12     7   ar
    22    18    20    1
    23    18    21    1
@<TRIPOS>MOLECULE
*****
 21 23 0 0 0
SMALL
GASTEIGER

@<TRIPOS>ATOM
      1 C          64.9998   92.0084   11.8214 C.ar    1  UNL1        0.0537
      2 C          63.7657   91.4612   11.1676 C.ar    1  UNL1        0.1019
      3 N          62.8755   90.5159   11.9185 N.ar    1  UNL1       -0.2422
      4 C          63.2193   90.1178   13.3232 C.ar    1  UNL1        0.0989
      5 C          64.4534   90.6650   13.9771 C.ar    1  UNL1        0.0208
      6 C          65.3437   91.6103   13.2262 C.ar    1  UNL1        0.0061
      7 C          66.5778   92.1575   13.8800 C.ar    1  UNL1        0.0033
      8 C          66.4599   93.2090   14.9432 C.ar    1  UNL1        0.0207
      9 C          67.6940   93.7562   15.5971 C.ar    1  UNL1        0.0989
     10 N          69.0461   93.2520   15.1876 N.ar    1  UNL1       -0.2423
     11 C          69.1641   92.2006   14.1244 C.ar    1  UNL1        0.0989
     12 C          67.9299   91.6533   13.4706 C.ar    1  UNL1        0.0207
     13 C          66.8842   94.9905   10.2021 C.ar    1  UNL1        0.1385
     14 C          67.6360   93.8264    9.6280 C.ar    1  UNL1        0.0375
     15 C          67.0216   92.5676   10.1647 C.ar    1  UNL1        0.0404
     16 C          65.8901   92.9538   11.0705 C.ar    1  UNL1        0.1464
     17 O          65.8051   94.4512   11.0937 O.2     1  UNL1       -0.4563
     18 N          67.7745   96.8552    8.6273 N.3     1  UNL1       -0.3148
     19 C          67.1625   96.4395    9.9322 C.3     1  UNL1        0.1307
     20 H          67.8927   97.8683    8.6147 H       1  UNL1        0.1192
     21 H          67.1633   96.5747    7.8604 H       1  UNL1        0.1192
@<TRIPOS>BOND
     1    18    19    1
     2    19    13    1
     3    13    14   ar
     4    14    15   ar
     5    15    16   ar
     6    16     1    1
     7     1     2   ar
     8     2     3   ar
     9     3     4   ar
    10     4     5   ar
    11     5     6   ar
    12     6     7    1
    13     7     8   ar
    14     8     9   ar
    15     9    10   ar
    16    10    11   ar
    17    11    12   ar
    18    16    17   ar
    19    17    13   ar
    20     6     1   ar
    21    12     7   ar
    22    18    20    1
    23    18    21    1
@<TRIPOS>MOLECULE
*****
 21 23 0 0 0
SMALL
GASTEIGER

@<TRIPOS>ATOM
      1 C          64.4583   90.4228   13.7995 C.ar    1  UNL1        0.0537
      2 C          65.5950   91.3384   14.1451 C.ar    1  UNL1        0.1019
      3 N          66.0397   92.3844   13.1664 N.ar    1  UNL1       -0.2422
      4 C          65.3477   92.5149   11.8420 C.ar    1  UNL1        0.0989
      5 C          64.2110   91.5993   11.4963 C.ar    1  UNL1        0.0208
      6 C          63.7663   90.5532   12.4750 C.ar    1  UNL1        0.0061
      7 C          62.6295   89.6375   12.1294 C.ar    1  UNL1        0.0033
      8 C          62.9085   88.2477   11.6390 C.ar    1  UNL1        0.0207
      9 C          61.7719   87.3321   11.2933 C.ar    1  UNL1        0.0989
     10 N          60.3561   87.8062   11.4381 N.ar    1  UNL1       -0.2423
     11 C          60.0771   89.1960   11.9286 C.ar    1  UNL1        0.0989
     12 C          61.2139   90.1117   12.2742 C.ar    1  UNL1        0.0207
     13 C          63.6396   87.2348   15.8567 C.ar    1  UNL1        0.1385
     14 C          63.0187   88.2991   16.7121 C.ar    1  UNL1        0.0375
     15 C          63.2499   89.6229   16.0456 C.ar    1  UNL1        0.0404
     16 C          64.0136   89.3767   14.7782 C.ar    1  UNL1        0.1464
     17 O          64.2545   87.9007   14.6615 O.2     1  UNL1       -0.4563
     18 N          64.6723   84.8766   15.5065 N.3     1  UNL1       -0.3148
     19 C          63.6448   85.7629   16.1457 C.3     1  UNL1        0.1307
     20 H          64.5286   83.9141   15.8122 H       1  UNL1        0.1192
     21 H          65.6051   85.1848   15.7808 H       1  UNL1        0.1192
@<TRIPOS>BOND
     1    18    19    1
     2    19    13    1
     3    13    14   ar
     4    14    15   ar
     5    15    16   ar
     6    16     1    1
     7     1     2   ar
     8     2     3   ar
     9     3     4   ar
    10     4     5   ar
    11     5     6   ar
    12     6     7    1
    13     7     8   ar
    14     8     9   ar
    15     9    10   ar
    16    10    11   ar
    17    11    12   ar
    18    16    17   ar
    19    17    13   ar
    20     6     1   ar
    21    12     7   ar
    22    18    20    1
    23    18    21    1
@<TRIPOS>MOLECULE
*****
 21 23 0 0 0
SMALL
GASTEIGER

@<TRIPOS>ATOM
      1 C          64.5652   91.3005   12.9341 C.ar    1  UNL1        0.0537
      2 C          63.5050   90.3658   13.4362 C.ar    1  UNL1        0.1019
      3 N          62.4230   89.8929   12.5113 N.ar    1  UNL1       -0.2422
      4 C          62.4011   90.3547   11.0843 C.ar    1  UNL1        0.0989
      5 C          63.4614   91.2894   10.5822 C.ar    1  UNL1        0.0208
      6 C          64.5434   91.7623   11.5071 C.ar    1  UNL1        0.0061
      7 C          65.6037   92.6971   11.0051 C.ar    1  UNL1        0.0033
      8 C          65.5177   94.1629   11.3118 C.ar    1  UNL1        0.0207
      9 C          66.5779   95.0977   10.8098 C.ar    1  UNL1        0.0989
     10 N          67.7243   94.5667   10.0010 N.ar    1  UNL1       -0.2423
     11 C          67.8103   93.1009    9.6943 C.ar    1  UNL1        0.0989
     12 C          66.7500   92.1661   10.1963 C.ar    1  UNL1        0.0207
     13 C          67.8210   92.3961   14.7412 C.ar    1  UNL1        0.1385
     14 C          66.8039   92.6066   15.8235 C.ar    1  UNL1        0.0375
     15 C          65.4605   92.2219   15.2782 C.ar    1  UNL1        0.0404
     16 C          65.6473   91.7735   13.8590 C.ar    1  UNL1        0.1464
     17 O          67.1062   91.8812   13.5271 O.2     1  UNL1       -0.4563
     18 N          70.2250   92.1681   13.7825 N.3     1  UNL1       -0.3148
     19 C          69.2942   92.6549   14.8533 C.3     1  UNL1        0.1307
     20 H          71.1820   92.4296   14.0191 H       1  UNL1        0.1192
     21 H          69.9677   92.5907   12.8905 H       1  UNL1        0.1192
@<TRIPOS>BOND
     1    18    19    1
     2    19    13    1
     3    13    14   ar
     4    14    15   ar
     5    15    16   ar
     6    16     1    1
     7     1     2   ar
     8     2     3   ar
     9     3     4   ar
    10     4     5   ar
    11     5     6   ar
    12     6     7    1
    13     7     8   ar
    14     8     9   ar
    15     9    10   ar
    16    10    11   ar
    17    11    12   ar
    18    16    17   ar
    19    17    13   ar
    20     6     1   ar
    21    12     7   ar
    22    18    20    1
    23    18    21    1
@<TRIPOS>MOLECULE
*****
 21 23 0 0 0
SMALL
GASTEIGER

@<TRIPOS>ATOM
      1 C          63.9237   90.5525   12.7121 C.ar    1  UNL1        0.0537
      2 C          64.3787   91.7074   11.8700 C.ar    1  UNL1        0.1019
      3 N          65.4838   92.5988   12.3538 N.ar    1  UNL1       -0.2422
      4 C          66.1339   92.3353   13.6796 C.ar    1  UNL1        0.0989
      5 C          65.6789   91.1804   14.5217 C.ar    1  UNL1        0.0208
      6 C          64.5738   90.2890   14.0380 C.ar    1  UNL1        0.0061
      7 C          64.1187   89.1341   14.8801 C.ar    1  UNL1        0.0033
      8 C          64.4797   87.7319   14.4880 C.ar    1  UNL1        0.0207
      9 C          64.0247   86.5770   15.3300 C.ar    1  UNL1        0.0989
     10 N          63.2087   86.8242   16.5642 N.ar    1  UNL1       -0.2423
     11 C          62.8477   88.2263   16.9563 C.ar    1  UNL1        0.0989
     12 C          63.3027   89.3813   16.1141 C.ar    1  UNL1        0.0207
     13 C          61.6085   87.7288   11.3957 C.ar    1  UNL1        0.1385
     14 C          60.6272   88.8496   11.5721 C.ar    1  UNL1        0.0375
     15 C          61.3751   90.0437   12.0866 C.ar    1  UNL1        0.0404
     16 C          62.8185   89.6610   12.2283 C.ar    1  UNL1        0.1464
     17 O          62.9628   88.2303   11.8013 O.2     1  UNL1       -0.4563
     18 N          62.0752   85.1730   11.4034 N.3     1  UNL1       -0.3148
     19 C          61.2912   86.3489   10.9007 C.3     1  UNL1        0.1307
     20 H          61.7278   84.3202   10.9649 H       1  UNL1        0.1192
     21 H          61.9701   85.1020   12.4155 H       1  UNL1        0.1192
@<TRIPOS>BOND
     1    18    19    1
     2    19    13    1
     3    13    14   ar
     4    14    15   ar
     5    15    16   ar
     6    16     1    1
     7     1     2   ar
     8     2     3   ar
     9     3     4   ar
    10     4     5   ar
    11     5     6   ar
    12     6     7    1
    13     7     8   ar
    14     8     9   ar
    15     9    10   ar
    16    10    11   ar
    17    11    12   ar
    18    16    17   ar
    19    17    13   ar
    20     6     1   ar
    21    12     7   ar
    22    18    20    1
    23    18    21    1
@<TRIPOS>MOLECULE
*****
 21 23 0 0 0
SMALL
GASTEIGER

@<TRIPOS>ATOM
      1 C          63.4669   84.1276   13.4699 C.ar    1  UNL1        0.0537
      2 C          63.7865   83.1626   14.5729 C.ar    1  UNL1        0.1019
      3 N          63.5420   81.6954   14.3799 N.ar    1  UNL1       -0.2422
      4 C          62.9780   81.1931   13.0839 C.ar    1  UNL1        0.0989
      5 C          62.6584   82.1580   11.9809 C.ar    1  UNL1        0.0208
      6 C          62.9029   83.6253   12.1739 C.ar    1  UNL1        0.0061
      7 C          62.5833   84.5904   11.0709 C.ar    1  UNL1        0.0033
      8 C          61.4877   85.5990   11.2508 C.ar    1  UNL1        0.0207
      9 C          61.1681   86.5640   10.1479 C.ar    1  UNL1        0.0989
     10 N          61.9441   86.5205    8.8649 N.ar    1  UNL1       -0.2423
     11 C          63.0398   85.5119    8.6850 C.ar    1  UNL1        0.0989
     12 C          63.3593   84.5469    9.7880 C.ar    1  UNL1        0.0207
     13 C          63.7117   87.9987   13.3273 C.ar    1  UNL1        0.1385
     14 C          64.4633   87.7072   14.5923 C.ar    1  UNL1        0.0375
     15 C          64.4631   86.2216   14.7996 C.ar    1  UNL1        0.0404
     16 C          63.7114   85.5950   13.6628 C.ar    1  UNL1        0.1464
     17 O          63.2470   86.6933   12.7529 O.2     1  UNL1       -0.4563
     18 N          62.1837   90.0781   13.0253 N.3     1  UNL1       -0.3148
     19 C          63.4677   89.3572   12.7399 C.3     1  UNL1        0.1307
     20 H          62.1873   90.9803   12.5495 H       1  UNL1        0.1192
     21 H          62.0920   90.2243   14.0306 H       1  UNL1        0.1192
@<TRIPOS>BOND
     1    18    19    1
     2    19    13    1
     3    13    14   ar
     4    14    15   ar
     5    15    16   ar
     6    16     1    1
     7     1     2   ar
     8     2     3   ar
     9     3     4   ar
    10     4     5   ar
    11     5     6   ar
    12     6     7    1
    13     7     8   ar
    14     8     9   ar
    15     9    10   ar
    16    10    11   ar
    17    11    12   ar
    18    16    17   ar
    19    17    13   ar
    20     6     1   ar
    21    12     7   ar
    22    18    20    1
    23    18    21    1
@<TRIPOS>MOLECULE
*****
 21 23 0 0 0
SMALL
GASTEIGER

@<TRIPOS>ATOM
      1 C          60.8327   88.3296    9.3425 C.ar    1  UNL1        0.0537
      2 C          59.9220   89.1762    8.5035 C.ar    1  UNL1        0.1019
      3 N          59.0281   88.5337    7.4847 N.ar    1  UNL1       -0.2422
      4 C          59.0450   87.0447    7.3047 C.ar    1  UNL1        0.0989
      5 C          59.9557   86.1981    8.1436 C.ar    1  UNL1        0.0208
      6 C          60.8496   86.8406    9.1625 C.ar    1  UNL1        0.0061
      7 C          61.7604   85.9940   10.0015 C.ar    1  UNL1        0.0033
      8 C          61.5982   85.9682   11.4925 C.ar    1  UNL1        0.0207
      9 C          62.5089   85.1217   12.3315 C.ar    1  UNL1        0.0989
     10 N          63.5819   84.3009   11.6795 N.ar    1  UNL1       -0.2423
     11 C          63.7441   84.3266   10.1885 C.ar    1  UNL1        0.0989
     12 C          62.8333   85.1732    9.3495 C.ar    1  UNL1        0.0207
     13 C          62.6929   89.6575   12.4797 C.ar    1  UNL1        0.1385
     14 C          63.5117   90.2641   11.3789 C.ar    1  UNL1        0.0375
     15 C          62.9145   89.8405   10.0697 C.ar    1  UNL1        0.0404
     16 C          61.7267   88.9721   10.3614 C.ar    1  UNL1        0.1464
     17 O          61.5897   88.8590   11.8508 O.2     1  UNL1       -0.4563
     18 N          63.3953   91.1413   14.4934 N.3     1  UNL1       -0.3148
     19 C          62.9349   89.8207   13.9510 C.3     1  UNL1        0.1307
     20 H          63.5083   91.0726   15.5048 H       1  UNL1        0.1192
     21 H          62.7027   91.8580   14.2766 H       1  UNL1        0.1192
@<TRIPOS>BOND
     1    18    19    1
     2    19    13    1
     3    13    14   ar
     4    14    15   ar
     5    15    16   ar
     6    16     1    1
     7     1     2   ar
     8     2     3   ar
     9     3     4   ar
    10     4     5   ar
    11     5     6   ar
    12     6     7    1
    13     7     8   ar
    14     8     9   ar
    15     9    10   ar
    16    10    11   ar
    17    11    12   ar
    18    16    17   ar
    19    17    13   ar
    20     6     1   ar
    21    12     7   ar
    22    18    20    1
    23    18    21    1
@<TRIPOS>MOLECULE
*****
 21 23 0 0 0
SMALL
GASTEIGER

@<TRIPOS>ATOM
      1 C          66.7364   92.6277   13.4407 C.ar    1  UNL1        0.0537
      2 C          67.6051   93.2129   14.5143 C.ar    1  UNL1        0.1019
      3 N          67.2047   93.0875   15.9544 N.ar    1  UNL1       -0.2422
      4 C          65.9355   92.3769   16.3208 C.ar    1  UNL1        0.0989
      5 C          65.0668   91.7917   15.2471 C.ar    1  UNL1        0.0208
      6 C          65.4672   91.9171   13.8071 C.ar    1  UNL1        0.0061
      7 C          64.5984   91.3319   12.7333 C.ar    1  UNL1        0.0033
      8 C          64.4106   92.0648   11.4381 C.ar    1  UNL1        0.0207
      9 C          63.5419   91.4797   10.3644 C.ar    1  UNL1        0.0989
     10 N          62.8610   90.1616   10.5858 N.ar    1  UNL1       -0.2423
     11 C          63.0488   89.4286   11.8810 C.ar    1  UNL1        0.0989
     12 C          63.9176   90.0138   12.9548 C.ar    1  UNL1        0.0207
     13 C          67.4388   93.6265    9.7563 C.ar    1  UNL1        0.1385
     14 C          68.0671   92.2656    9.8124 C.ar    1  UNL1        0.0375
     15 C          67.8804   91.7258   11.1994 C.ar    1  UNL1        0.0404
     16 C          67.1368   92.7531   12.0005 C.ar    1  UNL1        0.1464
     17 O          66.8638   93.9278   11.1085 O.2     1  UNL1       -0.4563
     18 N          67.8171   95.9615    8.6816 N.3     1  UNL1       -0.3148
     19 C          67.3934   94.5279    8.5581 C.3     1  UNL1        0.1307
     20 H          67.7227   96.4231    7.7769 H       1  UNL1        0.1192
     21 H          68.7900   96.0036    8.9849 H       1  UNL1        0.1192
@<TRIPOS>BOND
     1    18    19    1
     2    19    13    1
     3    13    14   ar
     4    14    15   ar
     5    15    16   ar
     6    16     1    1
     7     1     2   ar
     8     2     3   ar
     9     3     4   ar
    10     4     5   ar
    11     5     6   ar
    12     6     7    1
    13     7     8   ar
    14     8     9   ar
    15     9    10   ar
    16    10    11   ar
    17    11    12   ar
    18    16    17   ar
    19    17    13   ar
    20     6     1   ar
    21    12     7   ar
    22    18    20    1
    23    18    21    1
@<TRIPOS>MOLECULE
*****
 21 23 0 0 0
SMALL
GASTEIGER

@<TRIPOS>ATOM
      1 C          62.7382   83.1487   12.2463 C.ar    1  UNL1        0.0537
      2 C          62.5912   81.8677   11.4799 C.ar    1  UNL1        0.1019
      3 N          62.8533   80.5548   12.1563 N.ar    1  UNL1       -0.2422
      4 C          63.2623   80.5229   13.5991 C.ar    1  UNL1        0.0989
      5 C          63.4093   81.8039   14.3655 C.ar    1  UNL1        0.0208
      6 C          63.1472   83.1168   13.6891 C.ar    1  UNL1        0.0061
      7 C          63.2942   84.3979   14.4555 C.ar    1  UNL1        0.0033
      8 C          62.4658   84.6367   15.6830 C.ar    1  UNL1        0.0207
      9 C          62.6127   85.9177   16.4494 C.ar    1  UNL1        0.0989
     10 N          63.5881   86.9599   15.9884 N.ar    1  UNL1       -0.2423
     11 C          64.4165   86.7211   14.7609 C.ar    1  UNL1        0.0989
     12 C          64.2695   85.4400   13.9945 C.ar    1  UNL1        0.0207
     13 C          61.6935   86.7170   11.1320 C.ar    1  UNL1        0.1385
     14 C          62.4522   86.2473    9.9262 C.ar    1  UNL1        0.0375
     15 C          62.9358   84.8535   10.1969 C.ar    1  UNL1        0.0404
     16 C          62.4761   84.4617   11.5700 C.ar    1  UNL1        0.1464
     17 O          61.7083   85.6135   12.1479 O.2     1  UNL1       -0.4563
     18 N          59.6328   88.1431   11.8175 N.3     1  UNL1       -0.3148
     19 C          61.0356   88.0553   11.2935 C.3     1  UNL1        0.1307
     20 H          59.3470   89.1212   11.8619 H       1  UNL1        0.1192
     21 H          59.5924   87.7344   12.7511 H       1  UNL1        0.1192
@<TRIPOS>BOND
     1    18    19    1
     2    19    13    1
     3    13    14   ar
     4    14    15   ar
     5    15    16   ar
     6    16     1    1
     7     1     2   ar
     8     2     3   ar
     9     3     4   ar
    10     4     5   ar
    11     5     6   ar
    12     6     7    1
    13     7     8   ar
    14     8     9   ar
    15     9    10   ar
    16    10    11   ar
    17    11    12   ar
    18    16    17   ar
    19    17    13   ar
    20     6     1   ar
    21    12     7   ar
    22    18    20    1
    23    18    21    1
