@<TRIPOS>MOLECULE
*****
 29 32 0 0 0
SMALL
GASTEIGER

@<TRIPOS>ATOM
      1 N          62.3490   88.8930    9.8787 N.am    1  UNL1       -0.2791
      2 C          62.0762   89.8875   10.9680 C.2     1  UNL1        0.2526
      3 O          60.6754   90.3633   11.2156 O.2     1  UNL1       -0.2697
      4 H          63.2684   88.5807    9.7162 H       1  UNL1        0.1552
      5 C          59.3100   88.7965    7.3282 C.ar    1  UNL1        0.0698
      6 C          58.9648   87.3370    7.3536 C.ar    1  UNL1        0.0119
      7 C          59.7477   86.3961    8.2208 C.ar    1  UNL1        0.0195
      8 C          60.8757   86.9148    9.0625 C.ar    1  UNL1        0.0790
      9 C          61.2209   88.3743    9.0370 C.ar    1  UNL1        0.0676
     10 C          60.4380   89.3151    8.1699 C.ar    1  UNL1        0.0264
     11 N          61.6586   85.9739    9.9296 N.ar    1  UNL1       -0.2852
     12 C          61.5345   85.8369   11.4182 C.ar    1  UNL1        0.1023
     13 C          62.5022   84.7832   11.8690 C.ar    1  UNL1        0.1196
     14 N          63.2243   84.2689   10.6590 N.ar    1  UNL1       -0.2220
     15 C          62.7030   85.0048    9.4605 C.ar    1  UNL1        0.1829
     16 N          57.7443   90.6782    5.5939 N.1     1  UNL1       -0.1908
     17 C          58.5271   89.7373    6.4610 C.1     1  UNL1        0.1005
     18 C          63.2043   90.4062   11.8097 C.ar    1  UNL1        0.0919
     19 C          63.5172   89.7587   13.1261 C.ar    1  UNL1        0.1066
     20 N          64.6452   90.2774   13.9677 N.ar    1  UNL1       -0.2249
     21 C          65.4604   91.4436   13.4930 C.ar    1  UNL1        0.1623
     22 N          65.1476   92.0911   12.1767 N.ar    1  UNL1       -0.2249
     23 C          64.0195   91.5724   11.3350 C.ar    1  UNL1        0.1066
     24 C          66.5885   91.9623   14.3347 C.ar    1  UNL1        0.0358
     25 C          66.3153   92.4914   15.7114 C.ar    1  UNL1        0.0030
     26 C          67.4433   93.0100   16.5531 C.ar    1  UNL1        0.0001
     27 C          68.8446   92.9997   16.0180 C.ar    1  UNL1        0.0000
     28 C          69.1178   92.4706   14.6413 C.ar    1  UNL1        0.0001
     29 C          67.9898   91.9519   13.7996 C.ar    1  UNL1        0.0030
@<TRIPOS>BOND
     1    16    17    3
     2    17     5    1
     3     5     6   ar
     4     6     7   ar
     5     7     8   ar
     6     8    11    1
     7    11    12   ar
     8    12    13   ar
     9    13    14   ar
    10    14    15   ar
    11     8     9   ar
    12     9     1    1
    13     1     2   am
    14     2     3    2
    15     2    18    1
    16    18    19   ar
    17    19    20   ar
    18    20    21   ar
    19    21    24    1
    20    24    25   ar
    21    25    26   ar
    22    26    27   ar
    23    27    28   ar
    24    28    29   ar
    25    21    22   ar
    26    22    23   ar
    27     9    10   ar
    28    10     5   ar
    29    15    11   ar
    30    23    18   ar
    31    29    24   ar
    32     1     4    1
@<TRIPOS>MOLECULE
*****
 29 32 0 0 0
SMALL
GASTEIGER

@<TRIPOS>ATOM
      1 N          61.8804   86.1711   11.6184 N.am    1  UNL1       -0.2791
      2 C          62.0139   86.0205   10.1320 C.2     1  UNL1        0.2526
      3 O          62.8679   84.9267    9.5626 O.2     1  UNL1       -0.2697
      4 H          61.3198   86.8891   11.9920 H       1  UNL1        0.1552
      5 C          63.0839   82.8074   13.3465 C.ar    1  UNL1        0.0698
      6 C          64.0419   83.3414   14.3697 C.ar    1  UNL1        0.0119
      7 C          64.2795   84.8187   14.4758 C.ar    1  UNL1        0.0195
      8 C          63.5590   85.7619   13.5587 C.ar    1  UNL1        0.0790
      9 C          62.6009   85.2279   12.5355 C.ar    1  UNL1        0.0676
     10 C          62.3634   83.7506   12.4295 C.ar    1  UNL1        0.0264
     11 N          63.7965   87.2392   13.6648 N.ar    1  UNL1       -0.2852
     12 C          64.4439   87.9476   14.8176 C.ar    1  UNL1        0.1023
     13 C          64.4759   89.4136   14.5020 C.ar    1  UNL1        0.1196
     14 N          63.8482   89.6114   13.1540 N.ar    1  UNL1       -0.2220
     15 C          63.4284   88.2675   12.6366 C.ar    1  UNL1        0.1829
     16 N          62.6088   79.8528   13.1344 N.1     1  UNL1       -0.1908
     17 C          62.8464   81.3301   13.2405 C.1     1  UNL1        0.1005
     18 C          61.2933   86.9638    9.2148 C.ar    1  UNL1        0.0919
     19 C          61.3223   88.4393    9.4829 C.ar    1  UNL1        0.1066
     20 N          60.6018   89.3825    8.5657 N.ar    1  UNL1       -0.2249
     21 C          59.8522   88.8501    7.3805 C.ar    1  UNL1        0.1623
     22 N          59.8232   87.3746    7.1124 N.ar    1  UNL1       -0.2249
     23 C          60.5437   86.4314    8.0296 C.ar    1  UNL1        0.1066
     24 C          59.1316   89.7934    6.4633 C.ar    1  UNL1        0.0358
     25 C          59.9080   90.7735    5.6348 C.ar    1  UNL1        0.0030
     26 C          59.1874   91.7167    4.7177 C.ar    1  UNL1        0.0001
     27 C          57.6905   91.6798    4.6291 C.ar    1  UNL1        0.0000
     28 C          56.9141   90.6996    5.4577 C.ar    1  UNL1        0.0001
     29 C          57.6347   89.7564    6.3748 C.ar    1  UNL1        0.0030
@<TRIPOS>BOND
     1    16    17    3
     2    17     5    1
     3     5     6   ar
     4     6     7   ar
     5     7     8   ar
     6     8    11    1
     7    11    12   ar
     8    12    13   ar
     9    13    14   ar
    10    14    15   ar
    11     8     9   ar
    12     9     1    1
    13     1     2   am
    14     2     3    2
    15     2    18    1
    16    18    19   ar
    17    19    20   ar
    18    20    21   ar
    19    21    24    1
    20    24    25   ar
    21    25    26   ar
    22    26    27   ar
    23    27    28   ar
    24    28    29   ar
    25    21    22   ar
    26    22    23   ar
    27     9    10   ar
    28    10     5   ar
    29    15    11   ar
    30    23    18   ar
    31    29    24   ar
    32     1     4    1
@<TRIPOS>MOLECULE
*****
 29 32 0 0 0
SMALL
GASTEIGER

@<TRIPOS>ATOM
      1 N          62.4998   88.2361   10.6030 N.am    1  UNL1       -0.2791
      2 C          62.7795   89.7060   10.4987 C.2     1  UNL1        0.2526
      3 O          62.0970   90.5264    9.4445 O.2     1  UNL1       -0.2697
      4 H          62.9478   87.6976   11.2948 H       1  UNL1        0.1552
      5 C          61.0744   85.9546    7.6852 C.ar    1  UNL1        0.0698
      6 C          59.6134   86.2870    7.7535 C.ar    1  UNL1        0.0119
      7 C          59.1144   87.2692    8.7716 C.ar    1  UNL1        0.0195
      8 C          60.0766   87.9188    9.7214 C.ar    1  UNL1        0.0790
      9 C          61.5376   87.5864    9.6531 C.ar    1  UNL1        0.0676
     10 C          62.0366   86.6043    8.6350 C.ar    1  UNL1        0.0264
     11 N          59.5776   88.9009   10.7395 N.ar    1  UNL1       -0.2852
     12 C          59.4267   90.3797   10.5381 C.ar    1  UNL1        0.1023
     13 C          58.8978   90.9694   11.8119 C.ar    1  UNL1        0.1196
     14 N          58.7218   89.8551   12.8005 N.ar    1  UNL1       -0.2220
     15 C          59.1420   88.5768   12.1377 C.ar    1  UNL1        0.1829
     16 N          62.0723   83.9904    5.6490 N.1     1  UNL1       -0.1908
     17 C          61.5734   84.9725    6.6671 C.1     1  UNL1        0.1005
     18 C          63.7417   90.3557   11.4485 C.ar    1  UNL1        0.0919
     19 C          63.9429   89.7836   12.8204 C.ar    1  UNL1        0.1066
     20 N          64.9051   90.4333   13.7702 N.ar    1  UNL1       -0.2249
     21 C          65.6661   91.6551   13.3480 C.ar    1  UNL1        0.1623
     22 N          65.4648   92.2272   11.9761 N.ar    1  UNL1       -0.2249
     23 C          64.5027   91.5775   11.0264 C.ar    1  UNL1        0.1066
     24 C          66.6283   92.3048   14.2979 C.ar    1  UNL1        0.0358
     25 C          66.8228   93.7918   14.2682 C.ar    1  UNL1        0.0030
     26 C          67.7850   94.4414   15.2180 C.ar    1  UNL1        0.0001
     27 C          68.5526   93.6040   16.1975 C.ar    1  UNL1        0.0000
     28 C          68.3581   92.1170   16.2272 C.ar    1  UNL1        0.0001
     29 C          67.3959   91.4674   15.2774 C.ar    1  UNL1        0.0030
@<TRIPOS>BOND
     1    16    17    3
     2    17     5    1
     3     5     6   ar
     4     6     7   ar
     5     7     8   ar
     6     8    11    1
     7    11    12   ar
     8    12    13   ar
     9    13    14   ar
    10    14    15   ar
    11     8     9   ar
    12     9     1    1
    13     1     2   am
    14     2     3    2
    15     2    18    1
    16    18    19   ar
    17    19    20   ar
    18    20    21   ar
    19    21    24    1
    20    24    25   ar
    21    25    26   ar
    22    26    27   ar
    23    27    28   ar
    24    28    29   ar
    25    21    22   ar
    26    22    23   ar
    27     9    10   ar
    28    10     5   ar
    29    15    11   ar
    30    23    18   ar
    31    29    24   ar
    32     1     4    1
@<TRIPOS>MOLECULE
*****
 29 32 0 0 0
SMALL
GASTEIGER

@<TRIPOS>ATOM
      1 N          60.1226   94.0279   -1.3956 N.am    1  UNL1       -0.2791
      2 C          59.0972   94.8485   -0.6711 C.2     1  UNL1        0.2526
      3 O          59.4165   95.4310    0.6738 O.2     1  UNL1       -0.2697
      4 H          59.9130   93.6456   -2.2783 H       1  UNL1        0.1552
      5 C          62.9201   92.7865    1.1309 C.ar    1  UNL1        0.0698
      6 C          64.1569   93.3132    0.4655 C.ar    1  UNL1        0.0119
      7 C          64.0490   94.0782   -0.8203 C.ar    1  UNL1        0.0195
      8 C          62.7042   94.3164   -1.4407 C.ar    1  UNL1        0.0790
      9 C          61.4674   93.7896   -0.7753 C.ar    1  UNL1        0.0676
     10 C          61.5754   93.0247    0.5105 C.ar    1  UNL1        0.0264
     11 N          62.5963   95.0813   -2.7264 N.ar    1  UNL1       -0.2852
     12 C          62.9413   94.5643   -4.0916 C.ar    1  UNL1        0.1023
     13 C          62.6827   95.6611   -5.0817 C.ar    1  UNL1        0.1196
     14 N          62.1778   96.8559   -4.3284 N.ar    1  UNL1       -0.2220
     15 C          62.1244   96.4976   -2.8728 C.ar    1  UNL1        0.1829
     16 N          63.1360   91.2565    3.7024 N.1     1  UNL1       -0.1908
     17 C          63.0280   92.0215    2.4166 C.1     1  UNL1        0.1005
     18 C          57.7524   95.0868   -1.2914 C.ar    1  UNL1        0.0919
     19 C          56.7295   93.9898   -1.3088 C.ar    1  UNL1        0.1066
     20 N          55.3848   94.2280   -1.9292 N.ar    1  UNL1       -0.2249
     21 C          55.0629   95.5633   -2.5321 C.ar    1  UNL1        0.1623
     22 N          56.0857   96.6602   -2.5147 N.ar    1  UNL1       -0.2249
     23 C          57.4305   96.4220   -1.8944 C.ar    1  UNL1        0.1066
     24 C          53.7181   95.8015   -3.1525 C.ar    1  UNL1        0.0358
     25 C          52.4809   95.7431   -2.3064 C.ar    1  UNL1        0.0030
     26 C          51.1361   95.9813   -2.9267 C.ar    1  UNL1        0.0001
     27 C          51.0286   96.2779   -4.3932 C.ar    1  UNL1        0.0000
     28 C          52.2658   96.3363   -5.2393 C.ar    1  UNL1        0.0001
     29 C          53.6105   96.0981   -4.6189 C.ar    1  UNL1        0.0030
@<TRIPOS>BOND
     1    16    17    3
     2    17     5    1
     3     5     6   ar
     4     6     7   ar
     5     7     8   ar
     6     8    11    1
     7    11    12   ar
     8    12    13   ar
     9    13    14   ar
    10    14    15   ar
    11     8     9   ar
    12     9     1    1
    13     1     2   am
    14     2     3    2
    15     2    18    1
    16    18    19   ar
    17    19    20   ar
    18    20    21   ar
    19    21    24    1
    20    24    25   ar
    21    25    26   ar
    22    26    27   ar
    23    27    28   ar
    24    28    29   ar
    25    21    22   ar
    26    22    23   ar
    27     9    10   ar
    28    10     5   ar
    29    15    11   ar
    30    23    18   ar
    31    29    24   ar
    32     1     4    1
