@<TRIPOS>MOLECULE
*****
 49 55 0 0 0
SMALL
GASTEIGER

@<TRIPOS>ATOM
      1 C          59.7675   89.3664    7.1671 C.ar    1  UNL1        0.0516
      2 C          59.9567   87.8896    7.3501 C.ar    1  UNL1        0.0148
      3 C          60.6665   87.3692    8.5647 C.ar    1  UNL1        0.0043
      4 C          61.1871   88.3256    9.5964 C.ar    1  UNL1        0.0360
      5 C          60.9979   89.8023    9.4134 C.ar    1  UNL1        0.0043
      6 C          60.2882   90.3227    8.1987 C.ar    1  UNL1        0.0148
      7 N          59.0432   91.3641    3.8153 N.am    1  UNL1       -0.2681
      8 C          59.7529   90.8438    5.0300 C.2     1  UNL1        0.3082
      9 O          61.1579   91.2804    5.3223 O.2     1  UNL1       -0.2522
     10 N          59.0578   89.8867    5.9524 N.am    1  UNL1       -0.2681
     11 H          58.1210   91.0776    3.6235 H       1  UNL1        0.1564
     12 H          58.1356   89.6002    5.7606 H       1  UNL1        0.1564
     13 C          61.1289   94.2352    1.0483 C.ar    1  UNL1        0.0537
     14 C          61.9191   93.4647    2.0641 C.ar    1  UNL1        0.0058
     15 C          61.2238   92.5077    2.9864 C.ar    1  UNL1        0.0149
     16 C          59.7384   92.3212    2.8929 C.ar    1  UNL1        0.0516
     17 C          58.9482   93.0917    1.8771 C.ar    1  UNL1        0.0149
     18 C          59.6435   94.0486    0.9548 C.ar    1  UNL1        0.0058
     19 N          63.4385   93.7455   -3.8176 N.3     1  UNL1       -0.2711
     20 C          62.7433   92.7884   -2.8952 C.3     1  UNL1        0.0939
     21 C          62.2052   93.2707   -1.5807 C.3     1  UNL1        0.1110
     22 N          62.3623   94.7100   -1.1886 N.am    1  UNL1       -0.2732
     23 C          61.8241   95.1922    0.1259 C.2     1  UNL1        0.2491
     24 O          61.9812   96.6315    0.5180 O.2     1  UNL1       -0.2699
     25 C          63.0575   95.6670   -2.1110 C.3     1  UNL1        0.1110
     26 C          63.5956   95.1848   -3.4254 C.3     1  UNL1        0.0939
     27 C          63.2362   93.5639   -6.4014 C.3     1  UNL1        0.0173
     28 C          63.9767   93.2632   -5.1320 C.3     1  UNL1        0.0577
     29 C          65.2553   92.4802   -5.1771 C.3     1  UNL1        0.0173
     30 C          61.8969   87.8052   10.8111 C.ar    1  UNL1        0.1664
     31 N          62.4174   88.7616   11.8428 N.ar    1  UNL1       -0.2118
     32 C          63.1272   88.2412   13.0575 C.ar    1  UNL1        0.1434
     33 N          63.3164   86.7644   13.2404 N.ar    1  UNL1       -0.1987
     34 C          62.7959   85.8081   12.2087 C.ar    1  UNL1        0.2226
     35 N          62.0861   86.3285   10.9940 N.ar    1  UNL1       -0.1945
     36 N          62.9852   84.3313   12.3916 N.pl3   1  UNL1       -0.2764
     37 C          63.3151   83.4657   11.2119 C.3     1  UNL1        0.1051
     38 C          63.0512   84.9156   11.4915 C.3     1  UNL1        0.0242
     39 C          62.7794   85.0626   12.9594 C.3     1  UNL1        0.0242
     40 C          62.8444   83.7203   13.7542 C.3     1  UNL1        0.1051
     41 C          63.0336   82.2436   13.9372 C.3     1  UNL1        0.1619
     42 O          63.3636   81.3780   12.7575 O.3     1  UNL1       -0.3503
     43 C          63.5044   81.9890   11.3949 C.3     1  UNL1        0.1619
     44 C          63.6477   89.1975   14.0892 C.3     1  UNL1        0.0638
     45 C          64.7166   90.1848   13.7251 C.3     1  UNL1        0.0397
     46 C          65.2372   91.1412   14.7569 C.3     1  UNL1        0.1426
     47 O          64.6888   91.1102   16.1527 O.3     1  UNL1       -0.3538
     48 C          63.6198   90.1228   16.5168 C.3     1  UNL1        0.1426
     49 C          63.0993   89.1665   15.4850 C.3     1  UNL1        0.0397
@<TRIPOS>BOND
     1    27    28    1
     2    28    29    1
     3    28    19    1
     4    19    20    1
     5    20    21    1
     6    21    22    1
     7    22    23   am
     8    23    24    2
     9    23    13    1
    10    13    14   ar
    11    14    15   ar
    12    15    16   ar
    13    16     7    1
    14     7     8   am
    15     8     9    2
    16     8    10   am
    17    10     1    1
    18     1     2   ar
    19     2     3   ar
    20     3     4   ar
    21     4    30    1
    22    30    31   ar
    23    31    32   ar
    24    32    44    1
    25    44    45    1
    26    45    46    1
    27    46    47    1
    28    47    48    1
    29    48    49    1
    30    32    33   ar
    31    33    34   ar
    32    34    36    1
    33    36    37    1
    34    37    38    1
    35    38    39    1
    36    39    40    1
    37    40    41    1
    38    41    42    1
    39    42    43    1
    40    34    35   ar
    41     4     5   ar
    42     5     6   ar
    43    16    17   ar
    44    17    18   ar
    45    22    25    1
    46    25    26    1
    47    26    19    1
    48    18    13   ar
    49     6     1   ar
    50    35    30   ar
    51    49    44    1
    52    40    36    1
    53    43    37    1
    54     7    11    1
    55    10    12    1
@<TRIPOS>MOLECULE
*****
 49 55 0 0 0
SMALL
GASTEIGER

@<TRIPOS>ATOM
      1 C          59.9776   89.3986    7.4349 C.ar    1  UNL1        0.0516
      2 C          60.5010   90.3968    8.4248 C.ar    1  UNL1        0.0148
      3 C          61.2158   89.9271    9.6570 C.ar    1  UNL1        0.0043
      4 C          61.4072   88.4591    9.8994 C.ar    1  UNL1        0.0360
      5 C          60.8839   87.4610    8.9095 C.ar    1  UNL1        0.0043
      6 C          60.1691   87.9307    7.6773 C.ar    1  UNL1        0.0148
      7 N          59.2403   91.2536    4.0048 N.am    1  UNL1       -0.2681
      8 C          59.9551   90.7839    5.2371 C.2     1  UNL1        0.3082
      9 O          61.3623   91.2298    5.5037 O.2     1  UNL1       -0.2522
     10 N          59.2628   89.8683    6.2026 N.am    1  UNL1       -0.2681
     11 H          58.3168   90.9609    3.8298 H       1  UNL1        0.1564
     12 H          58.3393   89.5756    6.0276 H       1  UNL1        0.1564
     13 C          61.3173   94.0004    1.1082 C.ar    1  UNL1        0.0537
     14 C          59.8206   94.0073    1.2065 C.ar    1  UNL1        0.0058
     15 C          59.1283   93.0917    2.1721 C.ar    1  UNL1        0.0149
     16 C          59.9327   92.1692    3.0392 C.ar    1  UNL1        0.0516
     17 C          61.4295   92.1624    2.9409 C.ar    1  UNL1        0.0149
     18 C          62.1218   93.0780    1.9753 C.ar    1  UNL1        0.0058
     19 N          61.1364   94.6181   -4.2618 N.3     1  UNL1       -0.2711
     20 C          60.4440   93.7025   -3.2963 C.3     1  UNL1        0.0939
     21 C          60.7351   93.8018   -1.8281 C.3     1  UNL1        0.1110
     22 N          61.7186   94.8167   -1.3255 N.am    1  UNL1       -0.2732
     23 C          62.0097   94.9161    0.1426 C.2     1  UNL1        0.2491
     24 O          62.9932   95.9310    0.6452 O.2     1  UNL1       -0.2699
     25 C          62.4110   95.7324   -2.2911 C.3     1  UNL1        0.1110
     26 C          62.1199   95.6330   -3.7592 C.3     1  UNL1        0.0939
     27 C          59.4254   94.4746   -6.2116 C.3     1  UNL1        0.0173
     28 C          60.8453   94.5187   -5.7299 C.3     1  UNL1        0.0577
     29 C          61.9740   94.4635   -6.7163 C.3     1  UNL1        0.0173
     30 C          62.1220   87.9894   11.1316 C.ar    1  UNL1        0.1664
     31 N          62.6312   88.9870   12.1295 N.ar    1  UNL1       -0.2118
     32 C          63.3460   88.5173   13.3617 C.ar    1  UNL1        0.1434
     33 N          63.5516   87.0500   13.5961 N.ar    1  UNL1       -0.1987
     34 C          63.0425   86.0525   12.5983 C.ar    1  UNL1        0.2226
     35 N          62.3277   86.5222   11.3660 N.ar    1  UNL1       -0.1945
     36 N          63.2481   84.5852   12.8327 N.pl3   1  UNL1       -0.2764
     37 C          62.7620   83.5890   11.8222 C.3     1  UNL1        0.1051
     38 C          62.7766   85.0781   12.0016 C.3     1  UNL1        0.0242
     39 C          63.4566   85.3814   13.3038 C.3     1  UNL1        0.0242
     40 C          63.9398   84.1143   14.0776 C.3     1  UNL1        0.1051
     41 C          64.1454   82.6471   14.3120 C.3     1  UNL1        0.1619
     42 O          63.6593   81.6508   13.3015 O.3     1  UNL1       -0.3503
     43 C          62.9676   82.1218   12.0566 C.3     1  UNL1        0.1619
     44 C          63.8552   89.5148   14.3595 C.3     1  UNL1        0.0638
     45 C          65.0060   90.4094   14.0054 C.3     1  UNL1        0.0397
     46 C          65.5152   91.4069   15.0033 C.3     1  UNL1        0.1426
     47 O          64.8736   91.5098   16.3552 O.3     1  UNL1       -0.3538
     48 C          63.7228   90.6152   16.7093 C.3     1  UNL1        0.1426
     49 C          63.2137   89.6177   15.7115 C.3     1  UNL1        0.0397
@<TRIPOS>BOND
     1    27    28    1
     2    28    29    1
     3    28    19    1
     4    19    20    1
     5    20    21    1
     6    21    22    1
     7    22    23   am
     8    23    24    2
     9    23    13    1
    10    13    14   ar
    11    14    15   ar
    12    15    16   ar
    13    16     7    1
    14     7     8   am
    15     8     9    2
    16     8    10   am
    17    10     1    1
    18     1     2   ar
    19     2     3   ar
    20     3     4   ar
    21     4    30    1
    22    30    31   ar
    23    31    32   ar
    24    32    44    1
    25    44    45    1
    26    45    46    1
    27    46    47    1
    28    47    48    1
    29    48    49    1
    30    32    33   ar
    31    33    34   ar
    32    34    36    1
    33    36    37    1
    34    37    38    1
    35    38    39    1
    36    39    40    1
    37    40    41    1
    38    41    42    1
    39    42    43    1
    40    34    35   ar
    41     4     5   ar
    42     5     6   ar
    43    16    17   ar
    44    17    18   ar
    45    22    25    1
    46    25    26    1
    47    26    19    1
    48    18    13   ar
    49     6     1   ar
    50    35    30   ar
    51    49    44    1
    52    40    36    1
    53    43    37    1
    54     7    11    1
    55    10    12    1
@<TRIPOS>MOLECULE
*****
 49 55 0 0 0
SMALL
GASTEIGER

@<TRIPOS>ATOM
      1 C          60.1150   89.3974    7.8260 C.ar    1  UNL1        0.0516
      2 C          60.4971   90.4591    8.8144 C.ar    1  UNL1        0.0148
      3 C          61.2466   90.0893   10.0600 C.ar    1  UNL1        0.0043
      4 C          61.6139   88.6579   10.3172 C.ar    1  UNL1        0.0360
      5 C          61.2319   87.5963    9.3288 C.ar    1  UNL1        0.0043
      6 C          60.4824   87.9660    8.0832 C.ar    1  UNL1        0.0148
      7 N          59.2578   91.0229    4.3085 N.am    1  UNL1       -0.2681
      8 C          60.0073   90.6531    5.5541 C.2     1  UNL1        0.3082
      9 O          61.3985   91.1694    5.7735 O.2     1  UNL1       -0.2522
     10 N          59.3656   89.7671    6.5803 N.am    1  UNL1       -0.2681
     11 H          58.3448   90.6840    4.1645 H       1  UNL1        0.1564
     12 H          58.4525   89.4283    6.4363 H       1  UNL1        0.1564
     13 C          61.1831   93.6809    1.2299 C.ar    1  UNL1        0.0537
     14 C          62.0338   92.8103    2.1064 C.ar    1  UNL1        0.0058
     15 C          61.3920   91.9243    3.1326 C.ar    1  UNL1        0.0149
     16 C          59.8996   91.9089    3.2822 C.ar    1  UNL1        0.0516
     17 C          59.0489   92.7796    2.4057 C.ar    1  UNL1        0.0149
     18 C          59.6907   93.6656    1.3795 C.ar    1  UNL1        0.0058
     19 N          60.3866   94.4804   -4.0595 N.3     1  UNL1       -0.2711
     20 C          59.7449   93.5943   -3.0333 C.3     1  UNL1        0.0939
     21 C          60.2243   93.6232   -1.6122 C.3     1  UNL1        0.1110
     22 N          61.3455   94.5381   -1.2174 N.am    1  UNL1       -0.2732
     23 C          61.8249   94.5670    0.2036 C.2     1  UNL1        0.2491
     24 O          62.9461   95.4819    0.5984 O.2     1  UNL1       -0.2699
     25 C          61.9872   95.4242   -2.2436 C.3     1  UNL1        0.1110
     26 C          61.5078   95.3953   -3.6646 C.3     1  UNL1        0.0939
     27 C          58.4505   94.2504   -5.7766 C.3     1  UNL1        0.0173
     28 C          59.9072   94.4515   -5.4805 C.3     1  UNL1        0.0577
     29 C          60.8845   94.6237   -6.6054 C.3     1  UNL1        0.0173
     30 C          62.3634   88.2881   11.5629 C.ar    1  UNL1        0.1664
     31 N          62.5502   86.8445   11.9251 N.ar    1  UNL1       -0.2118
     32 C          63.2997   86.4747   13.1707 C.ar    1  UNL1        0.1434
     33 N          63.8623   87.5486   14.0542 N.ar    1  UNL1       -0.1987
     34 C          63.6755   88.9921   13.6919 C.ar    1  UNL1        0.2226
     35 N          62.9260   89.3619   12.4463 N.ar    1  UNL1       -0.1945
     36 N          64.2381   90.0660   14.5753 N.pl3   1  UNL1       -0.2764
     37 C          63.5347   90.4356   15.8475 C.3     1  UNL1        0.1051
     38 C          63.3509   89.4740   14.7111 C.3     1  UNL1        0.0242
     39 C          64.4880   89.6672   13.7520 C.3     1  UNL1        0.0242
     40 C          65.5041   90.7702   14.1865 C.3     1  UNL1        0.1051
     41 C          66.0668   91.8440   15.0698 C.3     1  UNL1        0.1619
     42 O          65.3633   92.2136   16.3420 O.3     1  UNL1       -0.3503
     43 C          64.0973   91.5095   16.7308 C.3     1  UNL1        0.1619
     44 C          63.4865   85.0312   13.5330 C.3     1  UNL1        0.0638
     45 C          63.1451   83.9589   12.5413 C.3     1  UNL1        0.0397
     46 C          63.3319   82.5153   12.9035 C.3     1  UNL1        0.1426
     47 O          63.8602   82.1441   14.2575 O.3     1  UNL1       -0.3538
     48 C          64.2016   83.2165   15.2492 C.3     1  UNL1        0.1426
     49 C          64.0147   84.6600   14.8869 C.3     1  UNL1        0.0397
@<TRIPOS>BOND
     1    27    28    1
     2    28    29    1
     3    28    19    1
     4    19    20    1
     5    20    21    1
     6    21    22    1
     7    22    23   am
     8    23    24    2
     9    23    13    1
    10    13    14   ar
    11    14    15   ar
    12    15    16   ar
    13    16     7    1
    14     7     8   am
    15     8     9    2
    16     8    10   am
    17    10     1    1
    18     1     2   ar
    19     2     3   ar
    20     3     4   ar
    21     4    30    1
    22    30    31   ar
    23    31    32   ar
    24    32    44    1
    25    44    45    1
    26    45    46    1
    27    46    47    1
    28    47    48    1
    29    48    49    1
    30    32    33   ar
    31    33    34   ar
    32    34    36    1
    33    36    37    1
    34    37    38    1
    35    38    39    1
    36    39    40    1
    37    40    41    1
    38    41    42    1
    39    42    43    1
    40    34    35   ar
    41     4     5   ar
    42     5     6   ar
    43    16    17   ar
    44    17    18   ar
    45    22    25    1
    46    25    26    1
    47    26    19    1
    48    18    13   ar
    49     6     1   ar
    50    35    30   ar
    51    49    44    1
    52    40    36    1
    53    43    37    1
    54     7    11    1
    55    10    12    1
@<TRIPOS>MOLECULE
*****
 49 55 0 0 0
SMALL
GASTEIGER

@<TRIPOS>ATOM
      1 C          59.6802   89.3423    7.4257 C.ar    1  UNL1        0.0516
      2 C          60.0954   90.3801    8.4261 C.ar    1  UNL1        0.0148
      3 C          60.8904   89.9816    9.6341 C.ar    1  UNL1        0.0043
      4 C          61.2703   88.5454    9.8416 C.ar    1  UNL1        0.0360
      5 C          60.8551   87.5077    8.8413 C.ar    1  UNL1        0.0043
      6 C          60.0601   87.9062    7.6333 C.ar    1  UNL1        0.0148
      7 N          58.6148   91.1939    4.0811 N.am    1  UNL1       -0.2681
      8 C          59.4099   90.7954    5.2890 C.2     1  UNL1        0.3082
      9 O          60.7296   91.4515    5.5682 O.2     1  UNL1       -0.2522
     10 N          58.8852   89.7408    6.2178 N.am    1  UNL1       -0.2681
     11 H          57.7487   90.7632    3.8978 H       1  UNL1        0.1564
     12 H          58.0191   89.3102    6.0345 H       1  UNL1        0.1564
     13 C          60.1889   94.3576    1.2948 C.ar    1  UNL1        0.0537
     14 C          59.2180   93.3308    0.7917 C.ar    1  UNL1        0.0058
     15 C          58.6934   92.2763    1.7205 C.ar    1  UNL1        0.0149
     16 C          59.1395   92.2485    3.1523 C.ar    1  UNL1        0.0516
     17 C          60.1104   93.2753    3.6554 C.ar    1  UNL1        0.0149
     18 C          60.6350   94.3298    2.7266 C.ar    1  UNL1        0.0058
     19 N          63.4247   94.2661   -3.0378 N.3     1  UNL1       -0.2711
     20 C          62.9000   93.2115   -2.1091 C.3     1  UNL1        0.0939
     21 C          61.9963   93.5935   -0.9745 C.3     1  UNL1        0.1110
     22 N          61.6172   95.0302   -0.7685 N.am    1  UNL1       -0.2732
     23 C          60.7136   95.4122    0.3661 C.2     1  UNL1        0.2491
     24 O          60.3345   96.8489    0.5720 O.2     1  UNL1       -0.2699
     25 C          62.1420   96.0848   -1.6973 C.3     1  UNL1        0.1110
     26 C          63.0456   95.7028   -2.8319 C.3     1  UNL1        0.0939
     27 C          64.6353   92.4391   -4.4329 C.3     1  UNL1        0.0173
     28 C          64.3283   93.8841   -4.1724 C.3     1  UNL1        0.0577
     29 C          64.9251   94.9470   -5.0466 C.3     1  UNL1        0.0173
     30 C          62.0653   88.1469   11.0496 C.ar    1  UNL1        0.1664
     31 N          62.3337   86.6972   11.3260 N.ar    1  UNL1       -0.2118
     32 C          63.1287   86.2987   12.5340 C.ar    1  UNL1        0.1434
     33 N          63.6553   87.3499   13.4655 N.ar    1  UNL1       -0.1987
     34 C          63.3869   88.7996   13.1890 C.ar    1  UNL1        0.2226
     35 N          62.5919   89.1981   11.9811 N.ar    1  UNL1       -0.1945
     36 N          63.9135   89.8508   14.1206 N.pl3   1  UNL1       -0.2764
     37 C          65.0412   90.7400   13.6874 C.3     1  UNL1        0.1051
     38 C          64.2320   89.6105   13.1222 C.3     1  UNL1        0.0242
     39 C          63.2338   89.1907   14.1603 C.3     1  UNL1        0.0242
     40 C          63.3124   90.0128   15.4853 C.3     1  UNL1        0.1051
     41 C          63.8389   91.0640   16.4168 C.3     1  UNL1        0.1619
     42 O          64.9666   91.9532   15.9836 O.3     1  UNL1       -0.3503
     43 C          65.5677   91.7912   14.6189 C.3     1  UNL1        0.1619
     44 C          63.3971   84.8491   12.8105 C.3     1  UNL1        0.0638
     45 C          63.7544   84.4038   14.1975 C.3     1  UNL1        0.0397
     46 C          64.0228   82.9541   14.4741 C.3     1  UNL1        0.1426
     47 O          63.9340   81.9497   13.3634 O.3     1  UNL1       -0.3538
     48 C          63.5767   82.3951   11.9763 C.3     1  UNL1        0.1426
     49 C          63.3083   83.8448   11.6998 C.3     1  UNL1        0.0397
@<TRIPOS>BOND
     1    27    28    1
     2    28    29    1
     3    28    19    1
     4    19    20    1
     5    20    21    1
     6    21    22    1
     7    22    23   am
     8    23    24    2
     9    23    13    1
    10    13    14   ar
    11    14    15   ar
    12    15    16   ar
    13    16     7    1
    14     7     8   am
    15     8     9    2
    16     8    10   am
    17    10     1    1
    18     1     2   ar
    19     2     3   ar
    20     3     4   ar
    21     4    30    1
    22    30    31   ar
    23    31    32   ar
    24    32    44    1
    25    44    45    1
    26    45    46    1
    27    46    47    1
    28    47    48    1
    29    48    49    1
    30    32    33   ar
    31    33    34   ar
    32    34    36    1
    33    36    37    1
    34    37    38    1
    35    38    39    1
    36    39    40    1
    37    40    41    1
    38    41    42    1
    39    42    43    1
    40    34    35   ar
    41     4     5   ar
    42     5     6   ar
    43    16    17   ar
    44    17    18   ar
    45    22    25    1
    46    25    26    1
    47    26    19    1
    48    18    13   ar
    49     6     1   ar
    50    35    30   ar
    51    49    44    1
    52    40    36    1
    53    43    37    1
    54     7    11    1
    55    10    12    1
