@<TRIPOS>MOLECULE
*****
 35 40 0 0 0
SMALL
GASTEIGER

@<TRIPOS>ATOM
      1 C          63.2555   90.7653   11.5622 C.3     1  UNL1        0.0799
      2 C          63.5211   91.6397   10.3727 C.3     1  UNL1        0.0178
      3 C          64.6979   92.5699   10.3735 C.3     1  UNL1        0.0029
      4 C          65.6090   92.6256   11.5638 C.3     1  UNL1        0.0178
      5 C          65.3434   91.7512   12.7532 C.3     1  UNL1        0.0795
      6 N          64.1666   90.8210   12.7524 N.3     1  UNL1       -0.1583
      7 C          62.0787   89.8351   11.5614 C.3     1  UNL1        0.0237
      8 C          60.9596   90.8309   11.4845 C.3     1  UNL1        0.0019
      9 C          60.6553   89.3629   11.5340 C.3     1  UNL1        0.0019
     10 C          62.7892   88.5162   11.6379 C.3     1  UNL1        0.0866
     11 O          62.1208   87.8440    9.2189 O.2     1  UNL1       -0.2749
     12 C          62.5143   87.4557   10.6133 C.2     1  UNL1        0.2258
     13 N          62.6330   86.0068   10.9832 N.am    1  UNL1       -0.2767
     14 C          62.3581   84.9463    9.9587 C.3     1  UNL1        0.1107
     15 C          62.4767   83.4974   10.3285 C.3     1  UNL1        0.0939
     16 N          62.8702   83.1091   11.7229 N.3     1  UNL1       -0.2709
     17 C          62.9889   81.6603   12.0928 C.3     1  UNL1        0.0722
     18 C          63.3824   81.2720   13.4872 C.3     1  UNL1        0.0174
     19 C          63.6572   82.3325   14.5117 C.3     1  UNL1        0.0029
     20 C          63.5386   83.7814   14.1419 C.3     1  UNL1        0.0177
     21 C          63.1451   84.1697   12.7474 C.3     1  UNL1        0.0774
     22 C          63.0264   85.6185   12.3776 C.3     1  UNL1        0.1093
     23 C          66.2545   91.8070   13.9435 C.3     1  UNL1        0.0164
     24 C          66.4756   92.1021   15.3975 C.3     1  UNL1        0.0014
     25 C          67.6115   91.6085   14.5511 C.3     1  UNL1        0.0014
     26 S          63.9010   89.9466   13.9419 S.O2    1  UNL1        0.0632
     27 O          64.4985   88.7775   13.6277 O.2     1  UNL1       -0.1528
     28 O          63.1506   91.0673   14.5983 O.2     1  UNL1       -0.1528
     29 C          63.6354   89.0722   15.1314 C.ar    1  UNL1        0.1222
     30 C          63.0995   89.6713   16.3979 C.ar    1  UNL1        0.0208
     31 C          62.8339   88.7969   17.5874 C.ar    1  UNL1        0.0128
     32 C          63.1042   87.3235   17.5104 C.ar    1  UNL1        0.0578
     33 CL         62.8386   86.4491   18.6999 Cl      1  UNL1       -0.0822
     34 C          63.6401   86.7244   16.2439 C.ar    1  UNL1        0.0128
     35 C          63.9057   87.5988   15.0544 C.ar    1  UNL1        0.0208
@<TRIPOS>BOND
     1    11    12    2
     2    12    10    1
     3    10     7    1
     4     1     7    1
     5     1     2    1
     6     2     3    1
     7     3     4    1
     8     4     5    1
     9     5    23    1
    10    23    24    1
    11    24    25    1
    12     5     6    1
    13     6    26    1
    14    26    27    2
    15    26    28    2
    16    26    29    1
    17    29    30   ar
    18    30    31   ar
    19    31    32   ar
    20    32    33    1
    21    32    34   ar
    22    34    35   ar
    23     7     8    1
    24     8     9    1
    25    12    13   am
    26    13    14    1
    27    14    15    1
    28    15    16    1
    29    16    17    1
    30    17    18    1
    31    18    19    1
    32    19    20    1
    33    21    20    1
    34    21    22    1
    35     9     7    1
    36    22    13    1
    37     6     1    1
    38    35    29   ar
    39    21    16    1
    40    25    23    1
@<TRIPOS>MOLECULE
*****
 35 40 0 0 0
SMALL
GASTEIGER

@<TRIPOS>ATOM
      1 C          60.5972   88.8792    9.7999 C.3     1  UNL1        0.0799
      2 C          59.8324   89.8628    8.9647 C.3     1  UNL1        0.0178
      3 C          59.4338   89.5066    7.5632 C.3     1  UNL1        0.0029
      4 C          59.8000   88.1667    6.9969 C.3     1  UNL1        0.0178
      5 C          60.5648   87.1831    7.8321 C.3     1  UNL1        0.0795
      6 N          60.9634   87.5393    9.2336 N.3     1  UNL1       -0.1583
      7 C          60.9959   89.2354   11.2014 C.3     1  UNL1        0.0237
      8 C          59.6472   89.2602   11.8574 C.3     1  UNL1        0.0019
      9 C          60.8781   89.5572   12.6617 C.3     1  UNL1        0.0019
     10 C          62.4831   89.3342   11.0321 C.3     1  UNL1        0.0866
     11 O          62.7781   91.0458    9.0997 O.2     1  UNL1       -0.2749
     12 C          63.0945   90.5941   10.4947 C.2     1  UNL1        0.2258
     13 N          64.0225   91.4025   11.3524 N.am    1  UNL1       -0.2767
     14 C          64.6340   92.6623   10.8151 C.3     1  UNL1        0.1107
     15 C          65.5619   93.4706   11.6728 C.3     1  UNL1        0.0939
     16 N          65.8783   93.0190   13.0678 N.3     1  UNL1       -0.2709
     17 C          66.8063   93.8273   13.9254 C.3     1  UNL1        0.0722
     18 C          67.1227   93.3757   15.3204 C.3     1  UNL1        0.0174
     19 C          66.5112   92.1158   15.8577 C.3     1  UNL1        0.0029
     20 C          65.5832   91.3075   15.0000 C.3     1  UNL1        0.0177
     21 C          65.2668   91.7591   13.6050 C.3     1  UNL1        0.0774
     22 C          64.3389   90.9508   12.7473 C.3     1  UNL1        0.1093
     23 C          60.9310   85.8433    7.2657 C.3     1  UNL1        0.0164
     24 C          60.5207   84.5159    6.7002 C.3     1  UNL1        0.0014
     25 C          61.9754   84.8500    6.8503 C.3     1  UNL1        0.0014
     26 S          61.7282   86.5556   10.0687 S.O2    1  UNL1        0.0632
     27 O          60.8160   86.0990   10.9529 O.2     1  UNL1       -0.1528
     28 O          62.9636   86.8333    9.2645 O.2     1  UNL1       -0.1528
     29 C          62.4930   85.5720   10.9039 C.ar    1  UNL1        0.1222
     30 C          63.0877   84.3506   10.2678 C.ar    1  UNL1        0.0208
     31 C          63.8525   83.3669   11.1029 C.ar    1  UNL1        0.0128
     32 C          64.0227   83.6046   12.5741 C.ar    1  UNL1        0.0578
     33 CL         64.7874   82.6209   13.4092 Cl      1  UNL1       -0.0822
     34 C          63.4280   84.8260   13.2102 C.ar    1  UNL1        0.0128
     35 C          62.6632   85.8097   12.3751 C.ar    1  UNL1        0.0208
@<TRIPOS>BOND
     1    11    12    2
     2    12    10    1
     3    10     7    1
     4     1     7    1
     5     1     2    1
     6     2     3    1
     7     3     4    1
     8     4     5    1
     9     5    23    1
    10    23    24    1
    11    24    25    1
    12     5     6    1
    13     6    26    1
    14    26    27    2
    15    26    28    2
    16    26    29    1
    17    29    30   ar
    18    30    31   ar
    19    31    32   ar
    20    32    33    1
    21    32    34   ar
    22    34    35   ar
    23     7     8    1
    24     8     9    1
    25    12    13   am
    26    13    14    1
    27    14    15    1
    28    15    16    1
    29    16    17    1
    30    17    18    1
    31    18    19    1
    32    19    20    1
    33    21    20    1
    34    21    22    1
    35     9     7    1
    36    22    13    1
    37     6     1    1
    38    35    29   ar
    39    21    16    1
    40    25    23    1
@<TRIPOS>MOLECULE
*****
 35 40 0 0 0
SMALL
GASTEIGER

@<TRIPOS>ATOM
      1 C          63.4718   89.9267   13.2708 C.3     1  UNL1        0.0799
      2 C          62.3387   89.3817   12.4528 C.3     1  UNL1        0.0178
      3 C          62.1380   89.8515   11.0425 C.3     1  UNL1        0.0029
      4 C          63.0705   90.8663   10.4502 C.3     1  UNL1        0.0178
      5 C          64.2036   91.4113   11.2682 C.3     1  UNL1        0.0795
      6 N          64.4042   90.9415   12.6786 N.3     1  UNL1       -0.1583
      7 C          63.6724   89.4569   14.6812 C.3     1  UNL1        0.0237
      8 C          63.2577   90.6899   15.4279 C.3     1  UNL1        0.0019
      9 C          63.7049   89.4719   16.1807 C.3     1  UNL1        0.0019
     10 C          64.1569   88.0607   14.4242 C.3     1  UNL1        0.0866
     11 O          63.3315   87.1357   16.7075 O.2     1  UNL1       -0.2749
     12 C          63.6417   86.9232   15.2554 C.2     1  UNL1        0.2258
     13 N          63.4368   85.5733   14.6344 N.am    1  UNL1       -0.2767
     14 C          62.9217   84.4358   15.4654 C.3     1  UNL1        0.1107
     15 C          62.7167   83.0858   14.8444 C.3     1  UNL1        0.0939
     16 N          63.0269   82.8734   13.3923 N.3     1  UNL1       -0.2709
     17 C          62.8220   81.5234   12.7713 C.3     1  UNL1        0.0722
     18 C          63.1322   81.3110   11.3192 C.3     1  UNL1        0.0174
     19 C          63.6474   82.4484   10.4881 C.3     1  UNL1        0.0029
     20 C          63.8523   83.7984   11.1091 C.3     1  UNL1        0.0177
     21 C          63.5421   84.0108   12.5613 C.3     1  UNL1        0.0774
     22 C          63.7470   85.3608   13.1823 C.3     1  UNL1        0.1093
     23 C          65.1359   92.4260   10.6759 C.3     1  UNL1        0.0164
     24 C          66.4765   92.7805   10.1038 C.3     1  UNL1        0.0014
     25 C          65.4104   93.8291   10.2220 C.3     1  UNL1        0.0014
     26 S          65.5373   91.4864   13.4966 S.O2    1  UNL1        0.0632
     27 O          66.3210   90.4114   13.7260 O.2     1  UNL1       -0.1528
     28 O          64.9224   92.8533   13.4377 O.2     1  UNL1       -0.1528
     29 C          66.6704   92.0314   14.3145 C.ar    1  UNL1        0.1222
     30 C          66.4032   92.6183   15.6689 C.ar    1  UNL1        0.0208
     31 C          67.5363   93.1633   16.4869 C.ar    1  UNL1        0.0128
     32 C          68.9365   93.1214   15.9506 C.ar    1  UNL1        0.0578
     33 CL         70.0696   93.6664   16.7685 Cl      1  UNL1       -0.0822
     34 C          69.2036   92.5345   14.5962 C.ar    1  UNL1        0.0128
     35 C          68.0706   91.9896   13.7782 C.ar    1  UNL1        0.0208
@<TRIPOS>BOND
     1    11    12    2
     2    12    10    1
     3    10     7    1
     4     1     7    1
     5     1     2    1
     6     2     3    1
     7     3     4    1
     8     4     5    1
     9     5    23    1
    10    23    24    1
    11    24    25    1
    12     5     6    1
    13     6    26    1
    14    26    27    2
    15    26    28    2
    16    26    29    1
    17    29    30   ar
    18    30    31   ar
    19    31    32   ar
    20    32    33    1
    21    32    34   ar
    22    34    35   ar
    23     7     8    1
    24     8     9    1
    25    12    13   am
    26    13    14    1
    27    14    15    1
    28    15    16    1
    29    16    17    1
    30    17    18    1
    31    18    19    1
    32    19    20    1
    33    21    20    1
    34    21    22    1
    35     9     7    1
    36    22    13    1
    37     6     1    1
    38    35    29   ar
    39    21    16    1
    40    25    23    1
@<TRIPOS>MOLECULE
*****
 35 40 0 0 0
SMALL
GASTEIGER

@<TRIPOS>ATOM
      1 C          60.6029   88.5130    9.5777 C.3     1  UNL1        0.0799
      2 C          59.8585   89.5118    8.7420 C.3     1  UNL1        0.0178
      3 C          59.5217   89.1935    7.3153 C.3     1  UNL1        0.0029
      4 C          59.9293   87.8764    6.7245 C.3     1  UNL1        0.0178
      5 C          60.6737   86.8776    7.5601 C.3     1  UNL1        0.0795
      6 N          61.0105   87.1960    8.9868 N.3     1  UNL1       -0.1583
      7 C          60.9396   88.8313   11.0043 C.3     1  UNL1        0.0237
      8 C          59.5646   88.8274   11.6036 C.3     1  UNL1        0.0019
      9 C          60.7582   89.1099   12.4670 C.3     1  UNL1        0.0019
     10 C          62.4317   88.9458   10.9005 C.3     1  UNL1        0.0866
     11 O          63.2668   88.1063   13.2131 O.2     1  UNL1       -0.2749
     12 C          63.2559   89.1511   12.1368 C.2     1  UNL1        0.2258
     13 N          64.0695   90.4011   12.2968 N.am    1  UNL1       -0.2767
     14 C          64.8937   90.6065   13.5330 C.3     1  UNL1        0.1107
     15 C          65.7072   91.8565   13.6930 C.3     1  UNL1        0.0939
     16 N          65.6964   92.9013   12.6167 N.3     1  UNL1       -0.2709
     17 C          66.5099   94.1513   12.7767 C.3     1  UNL1        0.0722
     18 C          66.4991   95.1961   11.7004 C.3     1  UNL1        0.0174
     19 C          65.6749   94.9908   10.4642 C.3     1  UNL1        0.0029
     20 C          64.8613   93.7407   10.3042 C.3     1  UNL1        0.0177
     21 C          64.8722   92.6959   11.3805 C.3     1  UNL1        0.0774
     22 C          64.0586   91.4459   11.2205 C.3     1  UNL1        0.1093
     23 C          61.0812   85.5606    6.9692 C.3     1  UNL1        0.0164
     24 C          62.1560   84.6076    6.5370 C.3     1  UNL1        0.0014
     25 C          60.7124   84.2324    6.3779 C.3     1  UNL1        0.0014
     26 S          61.7548   86.1972    9.8225 S.O2    1  UNL1        0.0632
     27 O          60.8277   85.7443   10.6932 O.2     1  UNL1       -0.1528
     28 O          63.0019   86.4667    9.0338 O.2     1  UNL1       -0.1528
     29 C          62.4991   85.1984   10.6581 C.ar    1  UNL1        0.1222
     30 C          63.4456   84.2333   10.0078 C.ar    1  UNL1        0.0208
     31 C          64.1899   83.2345   10.8435 C.ar    1  UNL1        0.0128
     32 C          63.9878   83.2007   12.3294 C.ar    1  UNL1        0.0578
     33 CL         64.7322   82.2019   13.1651 Cl      1  UNL1       -0.0822
     34 C          63.0413   84.1658   12.9797 C.ar    1  UNL1        0.0128
     35 C          62.2970   85.1646   12.1440 C.ar    1  UNL1        0.0208
@<TRIPOS>BOND
     1    11    12    2
     2    12    10    1
     3    10     7    1
     4     1     7    1
     5     1     2    1
     6     2     3    1
     7     3     4    1
     8     4     5    1
     9     5    23    1
    10    23    24    1
    11    24    25    1
    12     5     6    1
    13     6    26    1
    14    26    27    2
    15    26    28    2
    16    26    29    1
    17    29    30   ar
    18    30    31   ar
    19    31    32   ar
    20    32    33    1
    21    32    34   ar
    22    34    35   ar
    23     7     8    1
    24     8     9    1
    25    12    13   am
    26    13    14    1
    27    14    15    1
    28    15    16    1
    29    16    17    1
    30    17    18    1
    31    18    19    1
    32    19    20    1
    33    21    20    1
    34    21    22    1
    35     9     7    1
    36    22    13    1
    37     6     1    1
    38    35    29   ar
    39    21    16    1
    40    25    23    1
@<TRIPOS>MOLECULE
*****
 35 40 0 0 0
SMALL
GASTEIGER

@<TRIPOS>ATOM
      1 C          64.3154   90.1191   14.9350 C.3     1  UNL1        0.0799
      2 C          65.3187   90.7926   15.8236 C.3     1  UNL1        0.0178
      3 C          66.2095   91.8655   15.2708 C.3     1  UNL1        0.0029
      4 C          66.0968   92.2648   13.8294 C.3     1  UNL1        0.0178
      5 C          65.0934   91.5913   12.9407 C.3     1  UNL1        0.0795
      6 N          64.2027   90.5185   13.4935 N.3     1  UNL1       -0.1583
      7 C          63.4246   89.0463   15.4878 C.3     1  UNL1        0.0237
      8 C          62.3618   89.8923   16.1238 C.3     1  UNL1        0.0019
      9 C          62.2722   88.3966   16.1948 C.3     1  UNL1        0.0019
     10 C          64.1781   87.8276   15.0437 C.3     1  UNL1        0.0866
     11 O          63.7581   86.3873   17.1649 O.2     1  UNL1       -0.2749
     12 C          63.8917   86.4974   15.6749 C.2     1  UNL1        0.2258
     13 N          63.7388   85.2771   14.8160 N.am    1  UNL1       -0.2767
     14 C          63.4523   83.9469   15.4471 C.3     1  UNL1        0.1107
     15 C          63.2994   82.7266   14.5882 C.3     1  UNL1        0.0939
     16 N          63.4330   82.8367   13.0983 N.3     1  UNL1       -0.2709
     17 C          63.2801   81.6164   12.2394 C.3     1  UNL1        0.0722
     18 C          63.4136   81.7265   10.7494 C.3     1  UNL1        0.0174
     19 C          63.7001   83.0567   10.1183 C.3     1  UNL1        0.0029
     20 C          63.8530   84.2770   10.9772 C.3     1  UNL1        0.0177
     21 C          63.7194   84.1669   12.4672 C.3     1  UNL1        0.0774
     22 C          63.8723   85.3872   13.3261 C.3     1  UNL1        0.1093
     23 C          64.9808   91.9907   11.4993 C.3     1  UNL1        0.0164
     24 C          65.5287   92.7148   10.3053 C.3     1  UNL1        0.0014
     25 C          64.2379   91.9584   10.1966 C.3     1  UNL1        0.0014
     26 S          63.1993   89.8450   12.6048 S.O2    1  UNL1        0.0632
     27 O          63.7951   88.6833   12.2613 O.2     1  UNL1       -0.1528
     28 O          62.2670   91.0074   12.7767 O.2     1  UNL1       -0.1528
     29 C          62.1960   89.1716   11.7161 C.ar    1  UNL1        0.1222
     30 C          61.0736   89.9653   11.1159 C.ar    1  UNL1        0.0208
     31 C          60.0703   89.2919   10.2273 C.ar    1  UNL1        0.0128
     32 C          60.1893   87.8248    9.9388 C.ar    1  UNL1        0.0578
     33 CL         59.1859   87.1513    9.0501 Cl      1  UNL1       -0.0822
     34 C          61.3117   87.0310   10.5390 C.ar    1  UNL1        0.0128
     35 C          62.3150   87.7044   11.4277 C.ar    1  UNL1        0.0208
@<TRIPOS>BOND
     1    11    12    2
     2    12    10    1
     3    10     7    1
     4     1     7    1
     5     1     2    1
     6     2     3    1
     7     3     4    1
     8     4     5    1
     9     5    23    1
    10    23    24    1
    11    24    25    1
    12     5     6    1
    13     6    26    1
    14    26    27    2
    15    26    28    2
    16    26    29    1
    17    29    30   ar
    18    30    31   ar
    19    31    32   ar
    20    32    33    1
    21    32    34   ar
    22    34    35   ar
    23     7     8    1
    24     8     9    1
    25    12    13   am
    26    13    14    1
    27    14    15    1
    28    15    16    1
    29    16    17    1
    30    17    18    1
    31    18    19    1
    32    19    20    1
    33    21    20    1
    34    21    22    1
    35     9     7    1
    36    22    13    1
    37     6     1    1
    38    35    29   ar
    39    21    16    1
    40    25    23    1
@<TRIPOS>MOLECULE
*****
 35 40 0 0 0
SMALL
GASTEIGER

@<TRIPOS>ATOM
      1 C          62.0737   86.8855   10.4110 C.3     1  UNL1        0.0799
      2 C          62.0260   86.7588    8.9172 C.3     1  UNL1        0.0178
      3 C          62.6389   85.5656    8.2457 C.3     1  UNL1        0.0029
      4 C          63.2994   84.4993    9.0683 C.3     1  UNL1        0.0178
      5 C          63.3471   84.6260   10.5621 C.3     1  UNL1        0.0795
      6 N          62.7342   85.8192   11.2336 N.3     1  UNL1       -0.1583
      7 C          61.4609   88.0787   11.0825 C.3     1  UNL1        0.0237
      8 C          60.0066   87.7776   10.8720 C.3     1  UNL1        0.0019
      9 C          60.4169   89.0234   11.5998 C.3     1  UNL1        0.0019
     10 C          62.7024   88.7942   11.5261 C.3     1  UNL1        0.0866
     11 O          62.6413   90.3640    9.4567 O.2     1  UNL1       -0.2749
     12 C          63.1186   90.0653   10.8470 C.2     1  UNL1        0.2258
     13 N          64.0123   91.0376   11.5583 N.am    1  UNL1       -0.2767
     14 C          64.4287   92.3087   10.8793 C.3     1  UNL1        0.1107
     15 C          65.3223   93.2810   11.5906 C.3     1  UNL1        0.0939
     16 N          65.7997   92.9823   12.9808 N.3     1  UNL1       -0.2709
     17 C          66.6934   93.9547   13.6921 C.3     1  UNL1        0.0722
     18 C          67.1707   93.6560   15.0824 C.3     1  UNL1        0.0174
     19 C          66.7544   92.3850   15.7614 C.3     1  UNL1        0.0029
     20 C          65.8607   91.4126   15.0501 C.3     1  UNL1        0.0177
     21 C          65.3834   91.7113   13.6599 C.3     1  UNL1        0.0774
     22 C          64.4897   90.7389   12.9486 C.3     1  UNL1        0.1093
     23 C          64.0076   83.5596   11.3846 C.3     1  UNL1        0.0164
     24 C          64.7826   83.1516   12.6023 C.3     1  UNL1        0.0014
     25 C          64.3766   82.1205   11.5913 C.3     1  UNL1        0.0014
     26 S          62.7819   85.9459   12.7274 S.O2    1  UNL1        0.0632
     27 O          63.8072   86.7953   12.9506 O.2     1  UNL1       -0.1528
     28 O          61.6197   85.0048   12.8443 O.2     1  UNL1       -0.1528
     29 C          62.8296   86.0726   14.2213 C.ar    1  UNL1        0.1222
     30 C          62.2177   85.0089   15.0841 C.ar    1  UNL1        0.0208
     31 C          62.2654   85.1357   16.5780 C.ar    1  UNL1        0.0128
     32 C          62.9249   86.3259   17.2090 C.ar    1  UNL1        0.0578
     33 CL         62.9726   86.4526   18.7029 Cl      1  UNL1       -0.0822
     34 C          63.5368   87.3895   16.3462 C.ar    1  UNL1        0.0128
     35 C          63.4891   87.2628   14.8524 C.ar    1  UNL1        0.0208
@<TRIPOS>BOND
     1    11    12    2
     2    12    10    1
     3    10     7    1
     4     1     7    1
     5     1     2    1
     6     2     3    1
     7     3     4    1
     8     4     5    1
     9     5    23    1
    10    23    24    1
    11    24    25    1
    12     5     6    1
    13     6    26    1
    14    26    27    2
    15    26    28    2
    16    26    29    1
    17    29    30   ar
    18    30    31   ar
    19    31    32   ar
    20    32    33    1
    21    32    34   ar
    22    34    35   ar
    23     7     8    1
    24     8     9    1
    25    12    13   am
    26    13    14    1
    27    14    15    1
    28    15    16    1
    29    16    17    1
    30    17    18    1
    31    18    19    1
    32    19    20    1
    33    21    20    1
    34    21    22    1
    35     9     7    1
    36    22    13    1
    37     6     1    1
    38    35    29   ar
    39    21    16    1
    40    25    23    1
@<TRIPOS>MOLECULE
*****
 35 40 0 0 0
SMALL
GASTEIGER

@<TRIPOS>ATOM
      1 C          63.5808   88.2280   13.4055 C.3     1  UNL1        0.0799
      2 C          64.4296   87.9698   14.6150 C.3     1  UNL1        0.0178
      3 C          64.8217   86.5661   14.9702 C.3     1  UNL1        0.0029
      4 C          64.3651   85.4209   14.1158 C.3     1  UNL1        0.0178
      5 C          63.5164   85.6792   12.9063 C.3     1  UNL1        0.0795
      6 N          63.1242   87.0828   12.5511 N.3     1  UNL1       -0.1583
      7 C          63.1887   89.6316   13.0503 C.3     1  UNL1        0.0237
      8 C          61.6994   89.5314   13.1986 C.3     1  UNL1        0.0019
      9 C          62.3266   90.8311   12.7894 C.3     1  UNL1        0.0019
     10 C          64.5418   90.2193   12.7785 C.3     1  UNL1        0.0866
     11 O          64.8671   91.4950   15.0184 O.2     1  UNL1       -0.2749
     12 C          64.9929   91.4398   13.5247 C.2     1  UNL1        0.2258
     13 N          65.5698   92.6053   12.7771 N.am    1  UNL1       -0.2767
     14 C          66.0210   93.8259   13.5232 C.3     1  UNL1        0.1107
     15 C          66.5979   94.9913   12.7756 C.3     1  UNL1        0.0939
     16 N          66.7237   94.9362   11.2819 N.3     1  UNL1       -0.2709
     17 C          67.3007   96.1017   10.5344 C.3     1  UNL1        0.0722
     18 C          67.4265   96.0465    9.0407 C.3     1  UNL1        0.0174
     19 C          66.9754   94.8260    8.2946 C.3     1  UNL1        0.0029
     20 C          66.3984   93.6605    9.0422 C.3     1  UNL1        0.0177
     21 C          66.2726   93.7156   10.5359 C.3     1  UNL1        0.0774
     22 C          65.6956   92.5502   11.2834 C.3     1  UNL1        0.1093
     23 C          63.0598   84.5339   12.0520 C.3     1  UNL1        0.0164
     24 C          62.3535   83.2179   11.9129 C.3     1  UNL1        0.0014
     25 C          62.9752   83.8662   10.7115 C.3     1  UNL1        0.0014
     26 S          62.2754   87.3411   11.3416 S.O2    1  UNL1        0.0632
     27 O          63.0639   88.0922   10.5437 O.2     1  UNL1       -0.1528
     28 O          61.1610   86.5453   11.9538 O.2     1  UNL1       -0.1528
     29 C          61.4267   87.5993   10.1321 C.ar    1  UNL1        0.1222
     30 C          61.1086   89.0079    9.7259 C.ar    1  UNL1        0.0208
     31 C          60.2599   89.2661    8.5164 C.ar    1  UNL1        0.0128
     32 C          59.7292   88.1160    7.7131 C.ar    1  UNL1        0.0578
     33 CL         58.8804   88.3742    6.5036 Cl      1  UNL1       -0.0822
     34 C          60.0472   86.7074    8.1193 C.ar    1  UNL1        0.0128
     35 C          60.8960   86.4492    9.3288 C.ar    1  UNL1        0.0208
@<TRIPOS>BOND
     1    11    12    2
     2    12    10    1
     3    10     7    1
     4     1     7    1
     5     1     2    1
     6     2     3    1
     7     3     4    1
     8     4     5    1
     9     5    23    1
    10    23    24    1
    11    24    25    1
    12     5     6    1
    13     6    26    1
    14    26    27    2
    15    26    28    2
    16    26    29    1
    17    29    30   ar
    18    30    31   ar
    19    31    32   ar
    20    32    33    1
    21    32    34   ar
    22    34    35   ar
    23     7     8    1
    24     8     9    1
    25    12    13   am
    26    13    14    1
    27    14    15    1
    28    15    16    1
    29    16    17    1
    30    17    18    1
    31    18    19    1
    32    19    20    1
    33    21    20    1
    34    21    22    1
    35     9     7    1
    36    22    13    1
    37     6     1    1
    38    35    29   ar
    39    21    16    1
    40    25    23    1
@<TRIPOS>MOLECULE
*****
 35 40 0 0 0
SMALL
GASTEIGER

@<TRIPOS>ATOM
      1 C          64.2165   90.8227   12.9072 C.3     1  UNL1        0.0799
      2 C          63.6910   89.8769   13.9461 C.3     1  UNL1        0.0178
      3 C          64.3464   89.8032   15.2934 C.3     1  UNL1        0.0029
      4 C          65.5272   90.6753   15.6017 C.3     1  UNL1        0.0178
      5 C          66.0527   91.6211   14.5628 C.3     1  UNL1        0.0795
      6 N          65.3973   91.6948   13.2155 N.3     1  UNL1       -0.1583
      7 C          63.5611   90.8964   11.5600 C.3     1  UNL1        0.0237
      8 C          63.9888   92.2705   11.1371 C.3     1  UNL1        0.0019
      9 C          63.1333   91.4384   10.2284 C.3     1  UNL1        0.0019
     10 C          62.9058   89.5478   11.5149 C.3     1  UNL1        0.0866
     11 O          60.4268   90.3244   11.4768 O.2     1  UNL1       -0.2749
     12 C          61.5093   89.4099   10.9851 C.2     1  UNL1        0.2258
     13 N          61.1953   88.3574    9.9635 N.am    1  UNL1       -0.2767
     14 C          59.7988   88.2194    9.4336 C.3     1  UNL1        0.1107
     15 C          59.4848   87.1669    8.4120 C.3     1  UNL1        0.0939
     16 N          60.5673   86.2524    7.9203 N.3     1  UNL1       -0.2709
     17 C          60.2533   85.1999    6.8987 C.3     1  UNL1        0.0722
     18 C          61.3358   84.2854    6.4069 C.3     1  UNL1        0.0174
     19 C          62.7323   84.4233    6.9368 C.3     1  UNL1        0.0029
     20 C          63.0463   85.4758    7.9584 C.3     1  UNL1        0.0177
     21 C          61.9638   86.3903    8.4502 C.3     1  UNL1        0.0774
     22 C          62.2778   87.4429    9.4718 C.3     1  UNL1        0.1093
     23 C          67.2335   92.4931   14.8711 C.3     1  UNL1        0.0164
     24 C          67.7944   93.7898   15.3753 C.3     1  UNL1        0.0014
     25 C          68.7179   92.7070   14.9009 C.3     1  UNL1        0.0014
     26 S          65.9228   92.6406   12.1766 S.O2    1  UNL1        0.0632
     27 O          66.5321   91.8355   11.2804 O.2     1  UNL1       -0.1528
     28 O          65.3562   93.7982   12.9438 O.2     1  UNL1       -0.1528
     29 C          66.4483   93.5863   11.1377 C.ar    1  UNL1        0.1222
     30 C          67.2217   93.0587    9.9657 C.ar    1  UNL1        0.0208
     31 C          67.7472   94.0045    8.9268 C.ar    1  UNL1        0.0128
     32 C          67.4993   95.4778    9.0598 C.ar    1  UNL1        0.0578
     33 CL         68.0248   96.4236    8.0209 Cl      1  UNL1       -0.0822
     34 C          66.7260   96.0055   10.2318 C.ar    1  UNL1        0.0128
     35 C          66.2005   95.0597   11.2707 C.ar    1  UNL1        0.0208
@<TRIPOS>BOND
     1    11    12    2
     2    12    10    1
     3    10     7    1
     4     1     7    1
     5     1     2    1
     6     2     3    1
     7     3     4    1
     8     4     5    1
     9     5    23    1
    10    23    24    1
    11    24    25    1
    12     5     6    1
    13     6    26    1
    14    26    27    2
    15    26    28    2
    16    26    29    1
    17    29    30   ar
    18    30    31   ar
    19    31    32   ar
    20    32    33    1
    21    32    34   ar
    22    34    35   ar
    23     7     8    1
    24     8     9    1
    25    12    13   am
    26    13    14    1
    27    14    15    1
    28    15    16    1
    29    16    17    1
    30    17    18    1
    31    18    19    1
    32    19    20    1
    33    21    20    1
    34    21    22    1
    35     9     7    1
    36    22    13    1
    37     6     1    1
    38    35    29   ar
    39    21    16    1
    40    25    23    1
@<TRIPOS>MOLECULE
*****
 35 40 0 0 0
SMALL
GASTEIGER

@<TRIPOS>ATOM
      1 C          64.2017   90.8530   12.6464 C.3     1  UNL1        0.0799
      2 C          63.7001   89.8161   13.6072 C.3     1  UNL1        0.0178
      3 C          64.4086   89.5965   14.9110 C.3     1  UNL1        0.0029
      4 C          65.6186   90.4139   15.2540 C.3     1  UNL1        0.0178
      5 C          66.1202   91.4509   14.2932 C.3     1  UNL1        0.0795
      6 N          65.4118   91.6704   12.9894 N.3     1  UNL1       -0.1583
      7 C          63.4932   91.0726   11.3426 C.3     1  UNL1        0.0237
      8 C          64.5658   91.7941   10.5817 C.3     1  UNL1        0.0019
      9 C          63.2427   91.5163    9.9318 C.3     1  UNL1        0.0019
     10 C          62.1746   90.4274   11.6508 C.3     1  UNL1        0.0866
     11 O          60.7473   89.8527    9.5573 O.2     1  UNL1       -0.2749
     12 C          61.5992   89.4106   10.7100 C.2     1  UNL1        0.2258
     13 N          61.8757   87.9516   10.9220 N.am    1  UNL1       -0.2767
     14 C          61.3003   86.9348    9.9813 C.3     1  UNL1        0.1107
     15 C          61.5769   85.4758   10.1933 C.3     1  UNL1        0.0939
     16 N          62.4288   85.0337   11.3460 N.3     1  UNL1       -0.2709
     17 C          62.7053   83.5747   11.5580 C.3     1  UNL1        0.0722
     18 C          63.5572   83.1325   12.7108 C.3     1  UNL1        0.0174
     19 C          64.1326   84.1494   13.6515 C.3     1  UNL1        0.0029
     20 C          63.8560   85.6084   13.4395 C.3     1  UNL1        0.0177
     21 C          63.0041   86.0505   12.2867 C.3     1  UNL1        0.0774
     22 C          62.7276   87.5095   12.0747 C.3     1  UNL1        0.1093
     23 C          67.3302   92.2682   14.6362 C.3     1  UNL1        0.0164
     24 C          68.8048   92.5178   14.5204 C.3     1  UNL1        0.0014
     25 C          67.9516   93.4343   15.3462 C.3     1  UNL1        0.0014
     26 S          65.9134   92.7074   12.0286 S.O2    1  UNL1        0.0632
     27 O          66.7221   92.0175   11.1964 O.2     1  UNL1       -0.1528
     28 O          65.1123   93.7559   12.7420 O.2     1  UNL1       -0.1528
     29 C          66.4150   93.7444   11.0679 C.ar    1  UNL1        0.1222
     30 C          66.0650   95.1885   11.2729 C.ar    1  UNL1        0.0208
     31 C          66.5666   96.2255   10.3121 C.ar    1  UNL1        0.0128
     32 C          67.4182   95.8184    9.1464 C.ar    1  UNL1        0.0578
     33 CL         67.9198   96.8553    8.1856 Cl      1  UNL1       -0.0822
     34 C          67.7682   94.3742    8.9414 C.ar    1  UNL1        0.0128
     35 C          67.2666   93.3372    9.9021 C.ar    1  UNL1        0.0208
@<TRIPOS>BOND
     1    11    12    2
     2    12    10    1
     3    10     7    1
     4     1     7    1
     5     1     2    1
     6     2     3    1
     7     3     4    1
     8     4     5    1
     9     5    23    1
    10    23    24    1
    11    24    25    1
    12     5     6    1
    13     6    26    1
    14    26    27    2
    15    26    28    2
    16    26    29    1
    17    29    30   ar
    18    30    31   ar
    19    31    32   ar
    20    32    33    1
    21    32    34   ar
    22    34    35   ar
    23     7     8    1
    24     8     9    1
    25    12    13   am
    26    13    14    1
    27    14    15    1
    28    15    16    1
    29    16    17    1
    30    17    18    1
    31    18    19    1
    32    19    20    1
    33    21    20    1
    34    21    22    1
    35     9     7    1
    36    22    13    1
    37     6     1    1
    38    35    29   ar
    39    21    16    1
    40    25    23    1
