@<TRIPOS>MOLECULE
*****
 44 46 0 0 0
SMALL
GASTEIGER

@<TRIPOS>ATOM
      1 C          63.4492   89.1395   12.5999 C.ar    1  UNL1        0.0539
      2 S          64.6096   90.0525   12.8639 S.2     1  UNL1       -0.0619
      3 C          64.2675   91.4070   12.3177 C.ar    1  UNL1        0.1641
      4 N          62.8955   91.3311   11.7161 N.ar    1  UNL1       -0.2291
      5 C          62.3898   89.9297   11.8905 C.ar    1  UNL1        0.1414
      6 C          61.0584   89.4099   11.4354 C.2     1  UNL1        0.2673
      7 O          59.7977   89.9203   12.0682 O.2     1  UNL1       -0.2682
      8 N          60.9875   88.3797   10.3475 N.am    1  UNL1       -0.2745
      9 C          59.6561   87.8598    9.8924 C.3     1  UNL1        0.0994
     10 C          59.5853   86.8296    8.8045 C.3     1  UNL1        0.0881
     11 C          60.8458   86.3191    8.1717 C.3     1  UNL1        0.2672
     12 F          61.7534   85.5335    7.2723 F       1  UNL1       -0.2042
     13 F          59.8297   85.5264    7.4042 F       1  UNL1       -0.2042
     14 C          62.1772   86.8390    8.6267 C.3     1  UNL1        0.0881
     15 C          62.2481   87.8692    9.7146 C.3     1  UNL1        0.0994
     16 C          63.1912   84.7931   13.7364 C.ar    1  UNL1        0.1333
     17 C          62.7541   85.2389   12.3726 C.ar    1  UNL1        0.0208
     18 C          62.8401   86.6877   11.9937 C.ar    1  UNL1        0.0028
     19 C          63.3632   87.6907   12.9787 C.ar    1  UNL1        0.0191
     20 C          63.8003   87.2449   14.3426 C.ar    1  UNL1        0.0700
     21 CL         64.3234   88.2479   15.3277 Cl      1  UNL1       -0.0813
     22 C          63.7143   85.7961   14.7214 C.ar    1  UNL1        0.0867
     23 CL         64.1514   85.3503   16.0854 Cl      1  UNL1       -0.0800
     24 S          63.1053   83.3442   14.1153 S.O2    1  UNL1        0.0613
     25 O          64.3981   83.0809   13.4017 O.2     1  UNL1       -0.1530
     26 O          61.8124   83.6075   14.8288 O.2     1  UNL1       -0.1530
     27 N          63.0193   81.8954   14.4941 N.3     1  UNL1       -0.1723
     28 H          63.9548   81.5052   14.3801 H       1  UNL1        0.1491
     29 C          60.6912   80.7602   14.2904 C.3     1  UNL1        0.0278
     30 C          62.0780   80.9839   13.7641 C.3     1  UNL1        0.1701
     31 C          62.5234   80.2960   12.5077 C.3     1  UNL1        0.4118
     32 F          62.9688   79.6081   11.2513 F       1  UNL1       -0.1685
     33 F          62.3297   81.5707   11.7411 F       1  UNL1       -0.1685
     34 F          62.7171   79.0213   13.2743 F       1  UNL1       -0.1685
     35 C          65.1435   92.6237   12.3648 C.2     1  UNL1        0.2699
     36 O          65.7109   93.0891   13.6731 O.2     1  UNL1       -0.2679
     37 N          65.4520   93.3750   11.1038 N.am    1  UNL1       -0.2969
     38 H          65.0795   93.0696   10.2452 H       1  UNL1        0.1499
     39 C          66.3280   94.5917   11.1509 C.3     1  UNL1        0.1166
     40 C          67.1319   94.9842    9.9467 C.3     1  UNL1        0.1064
     41 C          66.8120   96.4270   10.2035 C.3     1  UNL1        0.0311
     42 C          67.4517   93.5413    9.6901 C.3     1  UNL1        0.0311
     43 O          67.9357   95.3766    8.7427 O.3     1  UNL1       -0.3851
     44 H          67.9140   96.3408    8.6396 H       1  UNL1        0.2103
@<TRIPOS>BOND
     1    30    29    1
     2    30    27    1
     3    27    24    1
     4    24    25    2
     5    24    26    2
     6    24    16    1
     7    16    17   ar
     8    17    18   ar
     9    18    19   ar
    10    19     1    1
    11     1     2   ar
    12     2     3   ar
    13     3    35    1
    14    35    36    2
    15    35    37   am
    16    37    39    1
    17    39    40    1
    18    40    41    1
    19    40    42    1
    20    40    43    1
    21     3     4   ar
    22     4     5   ar
    23     5     6    1
    24     6     7    2
    25     6     8   am
    26     8     9    1
    27     9    10    1
    28    10    11    1
    29    11    12    1
    30    11    13    1
    31    11    14    1
    32    14    15    1
    33    19    20   ar
    34    20    21    1
    35    20    22   ar
    36    22    23    1
    37    30    31    1
    38    31    32    1
    39    31    33    1
    40    31    34    1
    41    22    16   ar
    42     5     1   ar
    43    15     8    1
    44    27    28    1
    45    37    38    1
    46    43    44    1
@<TRIPOS>MOLECULE
*****
 44 46 0 0 0
SMALL
GASTEIGER

@<TRIPOS>ATOM
      1 C          61.8304   88.7671   10.7702 C.ar    1  UNL1        0.0539
      2 S          61.2043   89.4212    9.5743 S.2     1  UNL1       -0.0619
      3 C          60.3444   88.4030    8.8860 C.ar    1  UNL1        0.1641
      4 N          60.4390   87.1195    9.6565 N.ar    1  UNL1       -0.2291
      5 C          61.3574   87.3445   10.8210 C.ar    1  UNL1        0.1414
      6 C          61.7363   86.3258   11.8547 C.2     1  UNL1        0.2673
      7 O          61.2937   86.5005   13.2774 O.2     1  UNL1       -0.2682
      8 N          62.5577   85.1325   11.4661 N.am    1  UNL1       -0.2745
      9 C          62.9365   84.1138   12.4999 C.3     1  UNL1        0.0994
     10 C          63.7579   82.9204   12.1111 C.3     1  UNL1        0.0881
     11 C          64.2005   82.7457   10.6886 C.3     1  UNL1        0.2672
     12 F          64.8534   82.1448    9.4792 F       1  UNL1       -0.2042
     13 F          64.8061   81.5184   11.3023 F       1  UNL1       -0.2042
     14 C          63.8217   83.7644    9.6547 C.3     1  UNL1        0.0881
     15 C          63.0003   84.9577   10.0435 C.3     1  UNL1        0.0994
     16 C          64.6350   90.7281   13.6923 C.ar    1  UNL1        0.1333
     17 C          64.0129   89.4039   14.0230 C.ar    1  UNL1        0.0208
     18 C          63.0780   88.7502   13.0490 C.ar    1  UNL1        0.0028
     19 C          62.7652   89.4208   11.7442 C.ar    1  UNL1        0.0191
     20 C          63.3873   90.7450   11.4135 C.ar    1  UNL1        0.0700
     21 CL         63.0746   91.4156   10.1086 Cl      1  UNL1       -0.0813
     22 C          64.3222   91.3986   12.3875 C.ar    1  UNL1        0.0867
     23 CL         64.9443   92.7229   12.0567 Cl      1  UNL1       -0.0800
     24 S          65.5698   91.3817   14.6663 S.O2    1  UNL1        0.0613
     25 O          66.7420   90.9084   13.8589 O.2     1  UNL1       -0.1530
     26 O          64.3976   91.8551   15.4737 O.2     1  UNL1       -0.1530
     27 N          66.5047   92.0354   15.6404 N.3     1  UNL1       -0.1723
     28 H          65.9394   92.3371   16.4340 H       1  UNL1        0.1491
     29 C          66.8125   94.1380   14.1456 C.3     1  UNL1        0.0278
     30 C          67.3223   93.2192   15.2162 C.3     1  UNL1        0.1701
     31 C          68.6497   93.4844   15.8625 C.3     1  UNL1        0.4118
     32 F          69.9770   93.7496   16.5089 F       1  UNL1       -0.1685
     33 F          68.4353   94.9598   15.6975 F       1  UNL1       -0.1685
     34 F          68.8640   92.0090   16.0276 F       1  UNL1       -0.1685
     35 C          59.5325   88.6286    7.6451 C.2     1  UNL1        0.2699
     36 O          58.6030   87.5594    7.1522 O.2     1  UNL1       -0.2679
     37 N          59.6500   89.9234    6.8971 N.am    1  UNL1       -0.2969
     38 H          60.2600   90.6252    7.2206 H       1  UNL1        0.1499
     39 C          58.8381   90.1491    5.6562 C.3     1  UNL1        0.1166
     40 C          58.9573   91.4432    4.9069 C.3     1  UNL1        0.1064
     41 C          57.4663   91.6024    4.9446 C.3     1  UNL1        0.0311
     42 C          60.4485   91.2838    4.8692 C.3     1  UNL1        0.0311
     43 O          59.0767   92.7371    4.1576 O.3     1  UNL1       -0.3851
     44 H          58.1933   93.1132    4.0191 H       1  UNL1        0.2103
@<TRIPOS>BOND
     1    30    29    1
     2    30    27    1
     3    27    24    1
     4    24    25    2
     5    24    26    2
     6    24    16    1
     7    16    17   ar
     8    17    18   ar
     9    18    19   ar
    10    19     1    1
    11     1     2   ar
    12     2     3   ar
    13     3    35    1
    14    35    36    2
    15    35    37   am
    16    37    39    1
    17    39    40    1
    18    40    41    1
    19    40    42    1
    20    40    43    1
    21     3     4   ar
    22     4     5   ar
    23     5     6    1
    24     6     7    2
    25     6     8   am
    26     8     9    1
    27     9    10    1
    28    10    11    1
    29    11    12    1
    30    11    13    1
    31    11    14    1
    32    14    15    1
    33    19    20   ar
    34    20    21    1
    35    20    22   ar
    36    22    23    1
    37    30    31    1
    38    31    32    1
    39    31    33    1
    40    31    34    1
    41    22    16   ar
    42     5     1   ar
    43    15     8    1
    44    27    28    1
    45    37    38    1
    46    43    44    1
@<TRIPOS>MOLECULE
*****
 44 46 0 0 0
SMALL
GASTEIGER

@<TRIPOS>ATOM
      1 C          61.0308   88.0239    9.3677 C.ar    1  UNL1        0.0539
      2 S          60.5237   88.1301    7.9600 S.2     1  UNL1       -0.0619
      3 C          60.0377   89.5331    7.7469 C.ar    1  UNL1        0.1641
      4 N          60.2444   90.2941    9.0228 N.ar    1  UNL1       -0.2291
      5 C          60.8582   89.3614   10.0246 C.ar    1  UNL1        0.1414
      6 C          61.2334   89.7057   11.4355 C.2     1  UNL1        0.2673
      7 O          60.3586   89.2674   12.5725 O.2     1  UNL1       -0.2682
      8 N          62.4833   90.4883   11.7095 N.am    1  UNL1       -0.2745
      9 C          62.8585   90.8326   13.1204 C.3     1  UNL1        0.0994
     10 C          64.1085   91.6152   13.3943 C.3     1  UNL1        0.0881
     11 C          64.9833   92.0535   12.2574 C.3     1  UNL1        0.2672
     12 F          66.1262   92.6879   11.5217 F       1  UNL1       -0.2042
     13 F          65.7554   92.6182   13.4127 F       1  UNL1       -0.2042
     14 C          64.6081   91.7093   10.8465 C.3     1  UNL1        0.0881
     15 C          63.3582   90.9266   10.5725 C.3     1  UNL1        0.0994
     16 C          62.7651   84.3401   11.2837 C.ar    1  UNL1        0.1333
     17 C          61.9312   85.2860   12.0959 C.ar    1  UNL1        0.0208
     18 C          61.3530   86.5140   11.4572 C.ar    1  UNL1        0.0028
     19 C          61.6089   86.7960   10.0064 C.ar    1  UNL1        0.0191
     20 C          62.4429   85.8501    9.1942 C.ar    1  UNL1        0.0700
     21 CL         62.6988   86.1320    7.7433 Cl      1  UNL1       -0.0813
     22 C          63.0210   84.6221    9.8329 C.ar    1  UNL1        0.0867
     23 CL         63.8550   83.6761    9.0207 Cl      1  UNL1       -0.0800
     24 S          63.3433   83.1121   11.9224 S.O2    1  UNL1        0.0613
     25 O          64.5375   83.9046   12.3649 O.2     1  UNL1       -0.1530
     26 O          62.1490   82.3197   11.4800 O.2     1  UNL1       -0.1530
     27 N          63.9214   81.8842   12.5611 N.3     1  UNL1       -0.1723
     28 H          63.8508   81.1338   11.8738 H       1  UNL1        0.1491
     29 C          63.2475   79.8780   14.0682 C.3     1  UNL1        0.0278
     30 C          63.3377   81.3577   13.8386 C.3     1  UNL1        0.1701
     31 C          62.8440   82.3107   14.8865 C.3     1  UNL1        0.4118
     32 F          62.3504   83.2637   15.9344 F       1  UNL1       -0.1685
     33 F          61.4301   81.9136   14.5815 F       1  UNL1       -0.1685
     34 F          64.2580   82.7077   15.1914 F       1  UNL1       -0.1685
     35 C          59.4485   90.0792    6.4801 C.2     1  UNL1        0.2699
     36 O          58.0126   89.8068    6.1424 O.2     1  UNL1       -0.2679
     37 N          60.2952   90.8977    5.5511 N.am    1  UNL1       -0.2969
     38 H          61.2376   91.0765    5.7727 H       1  UNL1        0.1499
     39 C          59.7060   91.4438    4.2844 C.3     1  UNL1        0.1166
     40 C          60.5804   92.1607    3.2986 C.3     1  UNL1        0.1064
     41 C          61.7891   91.4947    3.8865 C.3     1  UNL1        0.0311
     42 C          59.3716   92.8266    2.7108 C.3     1  UNL1        0.0311
     43 O          61.4548   92.8776    2.3129 O.3     1  UNL1       -0.3851
     44 H          62.3802   92.6261    2.4588 H       1  UNL1        0.2103
@<TRIPOS>BOND
     1    30    29    1
     2    30    27    1
     3    27    24    1
     4    24    25    2
     5    24    26    2
     6    24    16    1
     7    16    17   ar
     8    17    18   ar
     9    18    19   ar
    10    19     1    1
    11     1     2   ar
    12     2     3   ar
    13     3    35    1
    14    35    36    2
    15    35    37   am
    16    37    39    1
    17    39    40    1
    18    40    41    1
    19    40    42    1
    20    40    43    1
    21     3     4   ar
    22     4     5   ar
    23     5     6    1
    24     6     7    2
    25     6     8   am
    26     8     9    1
    27     9    10    1
    28    10    11    1
    29    11    12    1
    30    11    13    1
    31    11    14    1
    32    14    15    1
    33    19    20   ar
    34    20    21    1
    35    20    22   ar
    36    22    23    1
    37    30    31    1
    38    31    32    1
    39    31    33    1
    40    31    34    1
    41    22    16   ar
    42     5     1   ar
    43    15     8    1
    44    27    28    1
    45    37    38    1
    46    43    44    1
@<TRIPOS>MOLECULE
*****
 44 46 0 0 0
SMALL
GASTEIGER

@<TRIPOS>ATOM
      1 C          62.4930   89.4552   11.1148 C.ar    1  UNL1        0.0539
      2 S          61.5896   89.9142   10.0088 S.2     1  UNL1       -0.0619
      3 C          60.8642   88.7148    9.4748 C.ar    1  UNL1        0.1641
      4 N          61.3193   87.5144   10.2507 N.ar    1  UNL1       -0.2291
      5 C          62.3260   87.9720   11.2643 C.ar    1  UNL1        0.1414
      6 C          63.0402   87.0996   12.2536 C.2     1  UNL1        0.2673
      7 O          63.6777   87.7084   13.4674 O.2     1  UNL1       -0.2682
      8 N          63.1169   85.6185   12.0293 N.am    1  UNL1       -0.2745
      9 C          63.8311   84.7461   13.0187 C.3     1  UNL1        0.0994
     10 C          63.9078   83.2650   12.7943 C.3     1  UNL1        0.0881
     11 C          63.2704   82.6562   11.5807 C.3     1  UNL1        0.2672
     12 F          62.8275   81.6195   10.5912 F       1  UNL1       -0.2042
     13 F          63.8307   81.4237   12.2263 F       1  UNL1       -0.2042
     14 C          62.5561   83.5286   10.5913 C.3     1  UNL1        0.0881
     15 C          62.4794   85.0097   10.8156 C.3     1  UNL1        0.0994
     16 C          65.2247   92.0686   13.5556 C.ar    1  UNL1        0.1333
     17 C          65.3905   91.9946   12.0667 C.ar    1  UNL1        0.0208
     18 C          64.4799   91.1234   11.2531 C.ar    1  UNL1        0.0028
     19 C          63.4036   90.3263   11.9284 C.ar    1  UNL1        0.0191
     20 C          63.2378   90.4004   13.4173 C.ar    1  UNL1        0.0700
     21 CL         62.1614   89.6033   14.0927 Cl      1  UNL1       -0.0813
     22 C          64.1484   91.2716   14.2309 C.ar    1  UNL1        0.0867
     23 CL         63.9826   91.3456   15.7200 Cl      1  UNL1       -0.0800
     24 S          66.1353   92.9398   14.3692 S.O2    1  UNL1        0.0613
     25 O          67.0627   93.0652   13.1970 O.2     1  UNL1       -0.1530
     26 O          65.2079   92.8143   15.5415 O.2     1  UNL1       -0.1530
     27 N          67.0459   93.8109   15.1828 N.3     1  UNL1       -0.1723
     28 H          67.3031   94.6012   14.5915 H       1  UNL1        0.1491
     29 C          68.3184   91.9229   16.4343 C.3     1  UNL1        0.0278
     30 C          68.3224   93.2508   15.7366 C.3     1  UNL1        0.1701
     31 C          69.6030   94.0186   15.5927 C.3     1  UNL1        0.4118
     32 F          70.8835   94.7863   15.4489 F       1  UNL1       -0.1685
     33 F          69.0630   95.0883   16.4951 F       1  UNL1       -0.1685
     34 F          70.1429   92.9489   14.6904 F       1  UNL1       -0.1685
     35 C          59.8601   88.7156    8.3605 C.2     1  UNL1        0.2699
     36 O          58.8379   87.6214    8.2712 O.2     1  UNL1       -0.2679
     37 N          59.8781   89.8106    7.3355 N.am    1  UNL1       -0.2969
     38 H          60.5489   90.5287    7.3941 H       1  UNL1        0.1499
     39 C          58.8739   89.8114    6.2212 C.3     1  UNL1        0.1166
     40 C          58.8111   90.9689    5.2691 C.3     1  UNL1        0.1064
     41 C          57.3130   90.9475    5.3421 C.3     1  UNL1        0.0311
     42 C          60.3092   90.9902    5.1963 C.3     1  UNL1        0.0311
     43 O          58.7483   92.1263    4.3171 O.3     1  UNL1       -0.3851
     44 H          57.8214   92.3628    4.1563 H       1  UNL1        0.2103
@<TRIPOS>BOND
     1    30    29    1
     2    30    27    1
     3    27    24    1
     4    24    25    2
     5    24    26    2
     6    24    16    1
     7    16    17   ar
     8    17    18   ar
     9    18    19   ar
    10    19     1    1
    11     1     2   ar
    12     2     3   ar
    13     3    35    1
    14    35    36    2
    15    35    37   am
    16    37    39    1
    17    39    40    1
    18    40    41    1
    19    40    42    1
    20    40    43    1
    21     3     4   ar
    22     4     5   ar
    23     5     6    1
    24     6     7    2
    25     6     8   am
    26     8     9    1
    27     9    10    1
    28    10    11    1
    29    11    12    1
    30    11    13    1
    31    11    14    1
    32    14    15    1
    33    19    20   ar
    34    20    21    1
    35    20    22   ar
    36    22    23    1
    37    30    31    1
    38    31    32    1
    39    31    33    1
    40    31    34    1
    41    22    16   ar
    42     5     1   ar
    43    15     8    1
    44    27    28    1
    45    37    38    1
    46    43    44    1
