@<TRIPOS>MOLECULE
*****
 33 36 0 0 0
SMALL
GASTEIGER

@<TRIPOS>ATOM
      1 C          63.5225   89.7618   14.6693 C.3     1  UNL1        0.0982
      2 C          63.9462   90.6197   13.5141 C.3     1  UNL1        0.0670
      3 C          65.0275   91.6174   13.8067 C.ar    1  UNL1       -0.0171
      4 C          65.4693   91.5428   15.2381 C.ar    1  UNL1       -0.0041
      5 C          66.5460   92.4590   15.7394 C.ar    1  UNL1       -0.0003
      6 C          67.1807   93.4499   14.8092 C.ar    1  UNL1       -0.0002
      7 C          66.7388   93.5246   13.3778 C.ar    1  UNL1       -0.0010
      8 C          65.6622   92.6083   12.8765 C.ar    1  UNL1        0.0176
      9 C          65.3724   92.8462   11.4241 C.3     1  UNL1        0.2317
     10 O          64.3765   92.1520   10.5431 O.3     1  UNL1       -0.4710
     11 C          63.4242   91.0484   10.8970 C.ar    1  UNL1        0.1355
     12 C          62.5974   90.6379    9.7147 C.ar    1  UNL1        0.0389
     13 C          61.5790   89.5454    9.8547 C.ar    1  UNL1        0.0327
     14 C          61.3875   88.8635   11.1769 C.ar    1  UNL1        0.1400
     15 F          60.3692   87.7711   11.3169 F       1  UNL1       -0.2042
     16 C          62.2144   89.2740   12.3592 C.ar    1  UNL1        0.0287
     17 C          63.2327   90.3664   12.2193 C.ar    1  UNL1        0.0194
     18 O          62.4726   87.9354   16.8053 O.2     1  UNL1       -0.2733
     19 C          63.5911   87.4824   15.9142 C.2     1  UNL1        0.2426
     20 N          64.1160   88.3956   14.8463 N.am    1  UNL1       -0.3023
     21 H          64.8501   88.0983   14.2615 H       1  UNL1        0.1495
     22 C          64.1846   86.1163   16.0911 C.3     1  UNL1        0.1759
     23 N          64.2295   85.1625   14.9342 N.am    1  UNL1       -0.2931
     24 C          62.9931   84.4159   14.5293 C.2     1  UNL1        0.2462
     25 O          61.7119   84.6230   15.2813 O.2     1  UNL1       -0.2701
     26 H          65.0704   85.0266   14.4407 H       1  UNL1        0.1502
     27 C          63.0380   83.4622   13.3724 C.ar    1  UNL1        0.0535
     28 C          63.4769   83.9427   12.0210 C.ar    1  UNL1        0.0068
     29 C          63.5218   82.9890   10.8640 C.ar    1  UNL1        0.0298
     30 C          63.1278   81.5548   11.0585 C.ar    1  UNL1        0.1401
     31 F          63.1727   80.6011    9.9016 F       1  UNL1       -0.2042
     32 C          62.6889   81.0744   12.4100 C.ar    1  UNL1        0.0298
     33 C          62.6440   82.0280   13.5670 C.ar    1  UNL1        0.0068
@<TRIPOS>BOND
     1    18    19    2
     2    19    22    1
     3    22    23    1
     4    23    24   am
     5    24    25    2
     6    24    27    1
     7    27    28   ar
     8    28    29   ar
     9    29    30   ar
    10    30    31    1
    11    30    32   ar
    12    32    33   ar
    13    19    20   am
    14    20     1    1
    15     1     2    1
    16     2     3    1
    17     3     4   ar
    18     4     5   ar
    19     5     6   ar
    20     6     7   ar
    21     7     8   ar
    22     8     9    1
    23     9    10    1
    24    10    11    1
    25    11    12   ar
    26    12    13   ar
    27    13    14   ar
    28    14    15    1
    29    14    16   ar
    30    16    17   ar
    31    33    27   ar
    32    17     2    1
    33     8     3   ar
    34    17    11   ar
    35    23    26    1
    36    20    21    1
@<TRIPOS>MOLECULE
*****
 33 36 0 0 0
SMALL
GASTEIGER

@<TRIPOS>ATOM
      1 C          63.7482   89.5145   14.4828 C.3     1  UNL1        0.0982
      2 C          64.0007   90.4233   13.3164 C.3     1  UNL1        0.0670
      3 C          63.2370   90.1042   12.0654 C.ar    1  UNL1       -0.0171
      4 C          62.3548   88.9057   12.2526 C.ar    1  UNL1       -0.0041
      5 C          61.5031   88.4170   11.1187 C.ar    1  UNL1       -0.0003
      6 C          61.5336   89.1268    9.7977 C.ar    1  UNL1       -0.0002
      7 C          62.4159   90.3254    9.6105 C.ar    1  UNL1       -0.0010
      8 C          63.2676   90.8141   10.7444 C.ar    1  UNL1        0.0176
      9 C          64.0694   92.0183   10.3481 C.3     1  UNL1        0.2317
     10 O          65.0386   92.8101   11.1749 O.3     1  UNL1       -0.4710
     11 C          65.4454   92.5932   12.6023 C.ar    1  UNL1        0.1355
     12 C          66.4460   93.6177   13.0487 C.ar    1  UNL1        0.0389
     13 C          66.9847   93.5800   14.4481 C.ar    1  UNL1        0.0327
     14 C          66.5229   92.5178   15.4012 C.ar    1  UNL1        0.1400
     15 F          67.0615   92.4800   16.8006 F       1  UNL1       -0.2042
     16 C          65.5223   91.4933   14.9548 C.ar    1  UNL1        0.0287
     17 C          64.9835   91.5310   13.5555 C.ar    1  UNL1        0.0194
     18 O          62.9872   87.5868   16.6519 O.2     1  UNL1       -0.2733
     19 C          63.9523   87.1693   15.5821 C.2     1  UNL1        0.2426
     20 N          64.3328   88.1331   14.4976 N.am    1  UNL1       -0.3023
     21 H          64.9662   87.8591   13.7955 H       1  UNL1        0.1495
     22 C          64.5370   85.7880   15.5969 C.3     1  UNL1        0.1759
     23 N          64.4009   84.9032   14.3933 N.am    1  UNL1       -0.2931
     24 C          63.5648   83.6599   14.4671 C.2     1  UNL1        0.2462
     25 O          62.8649   83.3016   15.7444 O.2     1  UNL1       -0.2701
     26 H          64.8603   85.1384   13.5550 H       1  UNL1        0.1502
     27 C          63.4287   82.7751   13.2636 C.ar    1  UNL1        0.0535
     28 C          62.8754   81.3887   13.4108 C.ar    1  UNL1        0.0068
     29 C          62.7393   80.5038   12.2072 C.ar    1  UNL1        0.0298
     30 C          63.1565   81.0054   10.8564 C.ar    1  UNL1        0.1401
     31 F          63.0204   80.1205    9.6529 F       1  UNL1       -0.2042
     32 C          63.7098   82.3918   10.7094 C.ar    1  UNL1        0.0298
     33 C          63.8459   83.2767   11.9129 C.ar    1  UNL1        0.0068
@<TRIPOS>BOND
     1    18    19    2
     2    19    22    1
     3    22    23    1
     4    23    24   am
     5    24    25    2
     6    24    27    1
     7    27    28   ar
     8    28    29   ar
     9    29    30   ar
    10    30    31    1
    11    30    32   ar
    12    32    33   ar
    13    19    20   am
    14    20     1    1
    15     1     2    1
    16     2     3    1
    17     3     4   ar
    18     4     5   ar
    19     5     6   ar
    20     6     7   ar
    21     7     8   ar
    22     8     9    1
    23     9    10    1
    24    10    11    1
    25    11    12   ar
    26    12    13   ar
    27    13    14   ar
    28    14    15    1
    29    14    16   ar
    30    16    17   ar
    31    33    27   ar
    32    17     2    1
    33     8     3   ar
    34    17    11   ar
    35    23    26    1
    36    20    21    1
@<TRIPOS>MOLECULE
*****
 33 36 0 0 0
SMALL
GASTEIGER

@<TRIPOS>ATOM
      1 C          62.0702   85.8224   10.2901 C.3     1  UNL1        0.0982
      2 C          62.6815   86.2534   11.5903 C.3     1  UNL1        0.0670
      3 C          62.9214   87.7265   11.7400 C.ar    1  UNL1       -0.0171
      4 C          62.4851   88.4797   10.5184 C.ar    1  UNL1       -0.0041
      5 C          62.6384   89.9708   10.4622 C.ar    1  UNL1       -0.0003
      6 C          63.2281   90.7086   11.6274 C.ar    1  UNL1       -0.0002
      7 C          63.6645   89.9554   12.8490 C.ar    1  UNL1       -0.0010
      8 C          63.5111   88.4643   12.9052 C.ar    1  UNL1        0.0176
      9 C          64.0065   87.9112   14.2086 C.3     1  UNL1        0.2317
     10 O          64.0346   86.4838   14.6686 O.3     1  UNL1       -0.4710
     11 C          63.5742   85.2568   13.9388 C.ar    1  UNL1        0.1355
     12 C          63.7812   84.0198   14.7616 C.ar    1  UNL1        0.0389
     13 C          63.3860   82.6802   14.2144 C.ar    1  UNL1        0.0327
     14 C          62.7838   82.5777   12.8445 C.ar    1  UNL1        0.1400
     15 F          62.3885   81.2382   12.2972 F       1  UNL1       -0.2042
     16 C          62.5768   83.8147   12.0217 C.ar    1  UNL1        0.0287
     17 C          62.9720   85.1542   12.5688 C.ar    1  UNL1        0.0194
     18 O          61.1672   85.5071    7.4466 O.2     1  UNL1       -0.2733
     19 C          60.3038   86.2390    8.4309 C.2     1  UNL1        0.2426
     20 N          60.7553   86.3967    9.8527 N.am    1  UNL1       -0.3023
     21 H          60.1886   86.8770   10.4987 H       1  UNL1        0.1495
     22 C          58.9889   86.8133    7.9936 C.3     1  UNL1        0.1759
     23 N          58.9430   87.8228    6.8851 N.am    1  UNL1       -0.2931
     24 C          59.4202   89.2243    7.1268 C.2     1  UNL1        0.2462
     25 O          59.9433   89.6161    8.4768 O.2     1  UNL1       -0.2701
     26 H          58.5996   87.5657    5.9990 H       1  UNL1        0.1502
     27 C          59.3743   90.2338    6.0183 C.ar    1  UNL1        0.0535
     28 C          60.6427   90.6653    5.3440 C.ar    1  UNL1        0.0068
     29 C          60.5968   91.6749    4.2355 C.ar    1  UNL1        0.0298
     30 C          59.2824   92.2529    3.8013 C.ar    1  UNL1        0.1401
     31 F          59.2365   93.2625    2.6929 F       1  UNL1       -0.2042
     32 C          58.0141   91.8213    4.4758 C.ar    1  UNL1        0.0298
     33 C          58.0599   90.8118    5.5842 C.ar    1  UNL1        0.0068
@<TRIPOS>BOND
     1    18    19    2
     2    19    22    1
     3    22    23    1
     4    23    24   am
     5    24    25    2
     6    24    27    1
     7    27    28   ar
     8    28    29   ar
     9    29    30   ar
    10    30    31    1
    11    30    32   ar
    12    32    33   ar
    13    19    20   am
    14    20     1    1
    15     1     2    1
    16     2     3    1
    17     3     4   ar
    18     4     5   ar
    19     5     6   ar
    20     6     7   ar
    21     7     8   ar
    22     8     9    1
    23     9    10    1
    24    10    11    1
    25    11    12   ar
    26    12    13   ar
    27    13    14   ar
    28    14    15    1
    29    14    16   ar
    30    16    17   ar
    31    33    27   ar
    32    17     2    1
    33     8     3   ar
    34    17    11   ar
    35    23    26    1
    36    20    21    1
@<TRIPOS>MOLECULE
*****
 33 36 0 0 0
SMALL
GASTEIGER

@<TRIPOS>ATOM
      1 C          62.1255   85.6418   10.3021 C.3     1  UNL1        0.0982
      2 C          62.7274   85.9085   11.6498 C.3     1  UNL1        0.0670
      3 C          62.9874   84.6985   12.4975 C.ar    1  UNL1       -0.0171
      4 C          62.5770   83.4386   11.7946 C.ar    1  UNL1       -0.0041
      5 C          62.7532   82.1113   12.4707 C.ar    1  UNL1       -0.0003
      6 C          63.3397   82.0439   13.8496 C.ar    1  UNL1       -0.0002
      7 C          63.7501   83.3038   14.5524 C.ar    1  UNL1       -0.0010
      8 C          63.5740   84.6311   13.8764 C.ar    1  UNL1        0.0176
      9 C          64.0454   85.7571   14.7482 C.3     1  UNL1        0.2317
     10 O          64.0468   87.2285   14.4565 O.3     1  UNL1       -0.4710
     11 C          63.5770   87.9373   13.2208 C.ar    1  UNL1        0.1355
     12 C          63.7557   89.4219   13.3393 C.ar    1  UNL1        0.0389
     13 C          63.3472   90.3191   12.2086 C.ar    1  UNL1        0.0327
     14 C          62.7601   89.7317   10.9596 C.ar    1  UNL1        0.1400
     15 F          62.3516   90.6287    9.8290 F       1  UNL1       -0.2042
     16 C          62.5814   88.2471   10.8411 C.ar    1  UNL1        0.0287
     17 C          62.9898   87.3499   11.9717 C.ar    1  UNL1        0.0194
     18 O          61.1975   85.5805    7.4498 O.2     1  UNL1       -0.2733
     19 C          60.3571   86.2480    8.4977 C.2     1  UNL1        0.2426
     20 N          60.8211   86.2787    9.9239 N.am    1  UNL1       -0.3023
     21 H          60.2695   86.7168   10.6117 H       1  UNL1        0.1495
     22 C          59.0528   86.8849    8.1196 C.3     1  UNL1        0.1759
     23 N          58.9974   87.8637    6.9843 N.am    1  UNL1       -0.2931
     24 C          59.4559   89.2771    7.1895 C.2     1  UNL1        0.2462
     25 O          59.9698   89.7117    8.5300 O.2     1  UNL1       -0.2701
     26 H          58.6601   87.5785    6.1045 H       1  UNL1        0.1502
     27 C          59.4005   90.2559    6.0542 C.ar    1  UNL1        0.0535
     28 C          60.6636   90.6713    5.3598 C.ar    1  UNL1        0.0068
     29 C          60.6082   91.6500    4.2245 C.ar    1  UNL1        0.0298
     30 C          59.2898   92.2134    3.7835 C.ar    1  UNL1        0.1401
     31 F          59.2344   93.1922    2.6482 F       1  UNL1       -0.2042
     32 C          58.0268   91.7980    4.4779 C.ar    1  UNL1        0.0298
     33 C          58.0821   90.8193    5.6133 C.ar    1  UNL1        0.0068
@<TRIPOS>BOND
     1    18    19    2
     2    19    22    1
     3    22    23    1
     4    23    24   am
     5    24    25    2
     6    24    27    1
     7    27    28   ar
     8    28    29   ar
     9    29    30   ar
    10    30    31    1
    11    30    32   ar
    12    32    33   ar
    13    19    20   am
    14    20     1    1
    15     1     2    1
    16     2     3    1
    17     3     4   ar
    18     4     5   ar
    19     5     6   ar
    20     6     7   ar
    21     7     8   ar
    22     8     9    1
    23     9    10    1
    24    10    11    1
    25    11    12   ar
    26    12    13   ar
    27    13    14   ar
    28    14    15    1
    29    14    16   ar
    30    16    17   ar
    31    33    27   ar
    32    17     2    1
    33     8     3   ar
    34    17    11   ar
    35    23    26    1
    36    20    21    1
@<TRIPOS>MOLECULE
*****
 33 36 0 0 0
SMALL
GASTEIGER

@<TRIPOS>ATOM
      1 C          63.9207   87.8870   14.2191 C.3     1  UNL1        0.0982
      2 C          63.3503   87.2857   12.9689 C.3     1  UNL1        0.0670
      3 C          62.8858   88.2630   11.9300 C.ar    1  UNL1       -0.0171
      4 C          63.0973   89.6793   12.3764 C.ar    1  UNL1       -0.0041
      5 C          62.6990   90.8151   11.4813 C.ar    1  UNL1       -0.0003
      6 C          62.0893   90.5346   10.1398 C.ar    1  UNL1       -0.0002
      7 C          61.8779   89.1183    9.6934 C.ar    1  UNL1       -0.0010
      8 C          62.2762   87.9825   10.5885 C.ar    1  UNL1        0.0176
      9 C          61.9804   86.6556    9.9546 C.3     1  UNL1        0.2317
     10 O          62.2212   85.2814   10.5056 O.3     1  UNL1       -0.4710
     11 C          62.8173   84.8947   11.8267 C.ar    1  UNL1        0.1355
     12 C          62.8793   83.4044   11.9847 C.ar    1  UNL1        0.0389
     13 C          63.4438   82.8060   13.2391 C.ar    1  UNL1        0.0327
     14 C          63.9463   83.6980   14.3353 C.ar    1  UNL1        0.1400
     15 F          64.5108   83.0998   15.5896 F       1  UNL1       -0.2042
     16 C          63.8843   85.1884   14.1773 C.ar    1  UNL1        0.0287
     17 C          63.3198   85.7867   12.9230 C.ar    1  UNL1        0.0194
     18 O          63.3077   90.1318   16.1127 O.2     1  UNL1       -0.2733
     19 C          64.3979   90.2864   15.0940 C.2     1  UNL1        0.2426
     20 N          64.7044   89.1641   14.1472 N.am    1  UNL1       -0.3023
     21 H          65.4199   89.2656   13.4787 H       1  UNL1        0.1495
     22 C          65.1815   91.5634   15.0221 C.3     1  UNL1        0.1759
     23 N          65.3664   92.2567   13.7048 N.am    1  UNL1       -0.2931
     24 C          66.7098   92.2531   13.0374 C.2     1  UNL1        0.2462
     25 O          67.8682   91.5564   13.6872 O.2     1  UNL1       -0.2701
     26 H          64.6060   92.7140   13.2782 H       1  UNL1        0.1502
     27 C          66.8946   92.9464   11.7201 C.ar    1  UNL1        0.0535
     28 C          66.2373   94.2715   11.4713 C.ar    1  UNL1        0.0068
     29 C          66.4221   94.9648   10.1540 C.ar    1  UNL1        0.0298
     30 C          67.2643   94.3330    9.0855 C.ar    1  UNL1        0.1401
     31 F          67.4491   95.0262    7.7682 F       1  UNL1       -0.2042
     32 C          67.9216   93.0078    9.3344 C.ar    1  UNL1        0.0298
     33 C          67.7368   92.3145   10.6516 C.ar    1  UNL1        0.0068
@<TRIPOS>BOND
     1    18    19    2
     2    19    22    1
     3    22    23    1
     4    23    24   am
     5    24    25    2
     6    24    27    1
     7    27    28   ar
     8    28    29   ar
     9    29    30   ar
    10    30    31    1
    11    30    32   ar
    12    32    33   ar
    13    19    20   am
    14    20     1    1
    15     1     2    1
    16     2     3    1
    17     3     4   ar
    18     4     5   ar
    19     5     6   ar
    20     6     7   ar
    21     7     8   ar
    22     8     9    1
    23     9    10    1
    24    10    11    1
    25    11    12   ar
    26    12    13   ar
    27    13    14   ar
    28    14    15    1
    29    14    16   ar
    30    16    17   ar
    31    33    27   ar
    32    17     2    1
    33     8     3   ar
    34    17    11   ar
    35    23    26    1
    36    20    21    1
@<TRIPOS>MOLECULE
*****
 33 36 0 0 0
SMALL
GASTEIGER

@<TRIPOS>ATOM
      1 C          62.4870   88.6673   12.6433 C.3     1  UNL1        0.0982
      2 C          62.5474   87.3121   12.0030 C.3     1  UNL1        0.0670
      3 C          63.3214   86.2707   12.7555 C.ar    1  UNL1       -0.0171
      4 C          63.8887   86.8234   14.0293 C.ar    1  UNL1       -0.0041
      5 C          64.6996   85.9430   14.9333 C.ar    1  UNL1       -0.0003
      6 C          64.9432   84.5098   14.5636 C.ar    1  UNL1       -0.0002
      7 C          64.3758   83.9571   13.2898 C.ar    1  UNL1       -0.0010
      8 C          63.5650   84.8375   12.3858 C.ar    1  UNL1        0.0176
      9 C          63.0947   84.0919   11.1721 C.3     1  UNL1        0.2317
     10 O          62.2647   84.5952   10.0285 O.3     1  UNL1       -0.4710
     11 C          61.7000   85.9685    9.8161 C.ar    1  UNL1        0.1355
     12 C          60.9247   86.0501    8.5346 C.ar    1  UNL1        0.0389
     13 C          60.2752   87.3408    8.1318 C.ar    1  UNL1        0.0327
     14 C          60.4010   88.5499    9.0105 C.ar    1  UNL1        0.1400
     15 F          59.7515   89.8407    8.6078 F       1  UNL1       -0.2042
     16 C          61.1763   88.4684   10.2920 C.ar    1  UNL1        0.0287
     17 C          61.8258   87.1777   10.6948 C.ar    1  UNL1        0.0194
     18 O          63.1238   90.5026   14.9293 O.2     1  UNL1       -0.2733
     19 C          63.9847   90.5080   13.7010 C.2     1  UNL1        0.2426
     20 N          63.6663   89.5903   12.5579 N.am    1  UNL1       -0.3023
     21 H          64.2313   89.5939   11.7517 H       1  UNL1        0.1495
     22 C          65.1640   91.4310   13.6156 C.3     1  UNL1        0.1759
     23 N          65.3342   92.3218   12.4207 N.am    1  UNL1       -0.2931
     24 C          66.4760   93.2930   12.3658 C.2     1  UNL1        0.2462
     25 O          67.4475   93.3736   13.5057 O.2     1  UNL1       -0.2701
     26 H          64.6965   92.2689   11.6725 H       1  UNL1        0.1502
     27 C          66.6462   94.1838   11.1709 C.ar    1  UNL1        0.0535
     28 C          67.2923   93.6528    9.9257 C.ar    1  UNL1        0.0068
     29 C          67.4625   94.5435    8.7309 C.ar    1  UNL1        0.0298
     30 C          66.9865   95.9652    8.7812 C.ar    1  UNL1        0.1401
     31 F          67.1567   96.8559    7.5864 F       1  UNL1       -0.2042
     32 C          66.3404   96.4960   10.0265 C.ar    1  UNL1        0.0298
     33 C          66.1702   95.6054   11.2214 C.ar    1  UNL1        0.0068
@<TRIPOS>BOND
     1    18    19    2
     2    19    22    1
     3    22    23    1
     4    23    24   am
     5    24    25    2
     6    24    27    1
     7    27    28   ar
     8    28    29   ar
     9    29    30   ar
    10    30    31    1
    11    30    32   ar
    12    32    33   ar
    13    19    20   am
    14    20     1    1
    15     1     2    1
    16     2     3    1
    17     3     4   ar
    18     4     5   ar
    19     5     6   ar
    20     6     7   ar
    21     7     8   ar
    22     8     9    1
    23     9    10    1
    24    10    11    1
    25    11    12   ar
    26    12    13   ar
    27    13    14   ar
    28    14    15    1
    29    14    16   ar
    30    16    17   ar
    31    33    27   ar
    32    17     2    1
    33     8     3   ar
    34    17    11   ar
    35    23    26    1
    36    20    21    1
@<TRIPOS>MOLECULE
*****
 33 36 0 0 0
SMALL
GASTEIGER

@<TRIPOS>ATOM
      1 C          62.4243   87.6554   12.6365 C.3     1  UNL1        0.0982
      2 C          62.3008   86.8410   11.3829 C.3     1  UNL1        0.0670
      3 C          61.5291   87.4788   10.2659 C.ar    1  UNL1       -0.0171
      4 C          61.0289   88.8391   10.6522 C.ar    1  UNL1       -0.0041
      5 C          60.2310   89.6502    9.6748 C.ar    1  UNL1       -0.0003
      6 C          59.9332   89.1010    8.3111 C.ar    1  UNL1       -0.0002
      7 C          60.4334   87.7407    7.9248 C.ar    1  UNL1       -0.0010
      8 C          61.2313   86.9296    8.9022 C.ar    1  UNL1        0.0176
      9 C          61.6317   85.6069    8.3187 C.3     1  UNL1        0.2317
     10 O          62.4287   84.5068    8.9548 O.3     1  UNL1       -0.4710
     11 C          63.0222   84.4577   10.3316 C.ar    1  UNL1        0.1355
     12 C          63.7473   83.1665   10.5699 C.ar    1  UNL1        0.0389
     13 C          64.4156   82.9140   11.8890 C.ar    1  UNL1        0.0327
     14 C          64.3587   83.9528   12.9695 C.ar    1  UNL1        0.1400
     15 F          65.0269   83.7004   14.2885 F       1  UNL1       -0.2042
     16 C          63.6335   85.2440   12.7311 C.ar    1  UNL1        0.0287
     17 C          62.9653   85.4965   11.4122 C.ar    1  UNL1        0.0194
     18 O          62.2646   89.7758   14.7527 O.2     1  UNL1       -0.2733
     19 C          63.4429   89.7288   13.8256 C.2     1  UNL1        0.2426
     20 N          63.5228   88.6685   12.7675 N.am    1  UNL1       -0.3023
     21 H          64.2961   88.6376   12.1590 H       1  UNL1        0.1495
     22 C          64.5413   90.7418   13.9565 C.3     1  UNL1        0.1759
     23 N          64.9508   91.5617   12.7691 N.am    1  UNL1       -0.2931
     24 C          66.1784   92.4210   12.8383 C.2     1  UNL1        0.2462
     25 O          66.9964   92.4604   14.0949 O.2     1  UNL1       -0.2701
     26 H          64.4138   91.5359   11.9443 H       1  UNL1        0.1502
     27 C          66.5878   93.2409   11.6508 C.ar    1  UNL1        0.0535
     28 C          67.3137   92.5952   10.5079 C.ar    1  UNL1        0.0068
     29 C          67.7232   93.4152    9.3205 C.ar    1  UNL1        0.0298
     30 C          67.4068   94.8808    9.2758 C.ar    1  UNL1        0.1401
     31 F          67.8162   95.7007    8.0883 F       1  UNL1       -0.2042
     32 C          66.6809   95.5264   10.4187 C.ar    1  UNL1        0.0298
     33 C          66.2714   94.7065   11.6062 C.ar    1  UNL1        0.0068
@<TRIPOS>BOND
     1    18    19    2
     2    19    22    1
     3    22    23    1
     4    23    24   am
     5    24    25    2
     6    24    27    1
     7    27    28   ar
     8    28    29   ar
     9    29    30   ar
    10    30    31    1
    11    30    32   ar
    12    32    33   ar
    13    19    20   am
    14    20     1    1
    15     1     2    1
    16     2     3    1
    17     3     4   ar
    18     4     5   ar
    19     5     6   ar
    20     6     7   ar
    21     7     8   ar
    22     8     9    1
    23     9    10    1
    24    10    11    1
    25    11    12   ar
    26    12    13   ar
    27    13    14   ar
    28    14    15    1
    29    14    16   ar
    30    16    17   ar
    31    33    27   ar
    32    17     2    1
    33     8     3   ar
    34    17    11   ar
    35    23    26    1
    36    20    21    1
@<TRIPOS>MOLECULE
*****
 33 36 0 0 0
SMALL
GASTEIGER

@<TRIPOS>ATOM
      1 C          63.9053   87.5079   14.4706 C.3     1  UNL1        0.0982
      2 C          63.4202   86.7373   13.2786 C.3     1  UNL1        0.0670
      3 C          63.4670   85.2435   13.4064 C.ar    1  UNL1       -0.0171
      4 C          64.0063   84.8243   14.7418 C.ar    1  UNL1       -0.0041
      5 C          64.1362   83.3675   15.0745 C.ar    1  UNL1       -0.0003
      6 C          63.7267   82.3298   14.0717 C.ar    1  UNL1       -0.0002
      7 C          63.1874   82.7489   12.7362 C.ar    1  UNL1       -0.0010
      8 C          63.0576   84.2058   12.4036 C.ar    1  UNL1        0.0176
      9 C          62.5002   84.4057   11.0254 C.3     1  UNL1        0.2317
     10 O          62.2146   85.6925   10.3095 O.3     1  UNL1       -0.4710
     11 C          62.4159   87.0974   10.7952 C.ar    1  UNL1        0.1355
     12 C          62.0000   88.1000    9.7598 C.ar    1  UNL1        0.0389
     13 C          62.1207   89.5676   10.0459 C.ar    1  UNL1        0.0327
     14 C          62.6572   90.0325   11.3672 C.ar    1  UNL1        0.1400
     15 F          62.7778   91.5000   11.6533 F       1  UNL1       -0.2042
     16 C          63.0730   89.0299   12.4025 C.ar    1  UNL1        0.0287
     17 C          62.9524   87.5624   12.1165 C.ar    1  UNL1        0.0194
     18 O          63.1169   89.9407   16.0391 O.2     1  UNL1       -0.2733
     19 C          64.2536   90.0135   15.0630 C.2     1  UNL1        0.2426
     20 N          64.6478   88.7972   14.2787 N.am    1  UNL1       -0.3023
     21 H          65.3938   88.8449   13.6381 H       1  UNL1        0.1495
     22 C          64.9961   91.3027   14.8711 C.3     1  UNL1        0.1759
     23 N          65.4141   91.7297   13.4953 N.am    1  UNL1       -0.2931
     24 C          66.0572   93.0691   13.2887 C.2     1  UNL1        0.2462
     25 O          66.2823   93.9813   14.4579 O.2     1  UNL1       -0.2701
     26 H          65.2663   91.1310   12.7278 H       1  UNL1        0.1502
     27 C          66.4752   93.4961   11.9128 C.ar    1  UNL1        0.0535
     28 C          66.2202   94.9013   11.4539 C.ar    1  UNL1        0.0068
     29 C          66.6382   95.3283   10.0781 C.ar    1  UNL1        0.0298
     30 C          67.3111   94.3503    9.1611 C.ar    1  UNL1        0.1401
     31 F          67.7291   94.7774    7.7853 F       1  UNL1       -0.2042
     32 C          67.5660   92.9452    9.6202 C.ar    1  UNL1        0.0298
     33 C          67.1481   92.5181   10.9960 C.ar    1  UNL1        0.0068
@<TRIPOS>BOND
     1    18    19    2
     2    19    22    1
     3    22    23    1
     4    23    24   am
     5    24    25    2
     6    24    27    1
     7    27    28   ar
     8    28    29   ar
     9    29    30   ar
    10    30    31    1
    11    30    32   ar
    12    32    33   ar
    13    19    20   am
    14    20     1    1
    15     1     2    1
    16     2     3    1
    17     3     4   ar
    18     4     5   ar
    19     5     6   ar
    20     6     7   ar
    21     7     8   ar
    22     8     9    1
    23     9    10    1
    24    10    11    1
    25    11    12   ar
    26    12    13   ar
    27    13    14   ar
    28    14    15    1
    29    14    16   ar
    30    16    17   ar
    31    33    27   ar
    32    17     2    1
    33     8     3   ar
    34    17    11   ar
    35    23    26    1
    36    20    21    1
@<TRIPOS>MOLECULE
*****
 33 36 0 0 0
SMALL
GASTEIGER

@<TRIPOS>ATOM
      1 C          62.5695   87.3798   12.7010 C.3     1  UNL1        0.0982
      2 C          62.4131   86.6431   11.4037 C.3     1  UNL1        0.0670
      3 C          63.0758   85.2992   11.3345 C.ar    1  UNL1       -0.0171
      4 C          63.7766   84.9670   12.6184 C.ar    1  UNL1       -0.0041
      5 C          64.5053   83.6635   12.7594 C.ar    1  UNL1       -0.0003
      6 C          64.5332   82.6924   11.6166 C.ar    1  UNL1       -0.0002
      7 C          63.8324   83.0246   10.3327 C.ar    1  UNL1       -0.0010
      8 C          63.1037   84.3281   10.1917 C.ar    1  UNL1        0.0176
      9 C          62.4757   84.4609    8.8359 C.3     1  UNL1        0.2317
     10 O          61.6648   85.5977    8.2881 O.3     1  UNL1       -0.4710
     11 C          61.2816   86.8825    8.9608 C.ar    1  UNL1        0.1355
     12 C          60.4606   87.7517    8.0550 C.ar    1  UNL1        0.0389
     13 C          59.9726   89.0861    8.5358 C.ar    1  UNL1        0.0327
     14 C          60.3056   89.5514    9.9223 C.ar    1  UNL1        0.1400
     15 F          59.8176   90.8858   10.4032 F       1  UNL1       -0.2042
     16 C          61.1266   88.6822   10.8281 C.ar    1  UNL1        0.0287
     17 C          61.6146   87.3478   10.3474 C.ar    1  UNL1        0.0194
     18 O          62.1373   89.7837   14.4429 O.2     1  UNL1       -0.2733
     19 C          63.4440   89.5996   13.7297 C.2     1  UNL1        0.2426
     20 N          63.6601   88.3976   12.8587 N.am    1  UNL1       -0.3023
     21 H          64.5177   88.2767   12.3906 H       1  UNL1        0.1495
     22 C          64.5345   90.6173   13.8874 C.3     1  UNL1        0.1759
     23 N          64.9482   91.4606   12.7178 N.am    1  UNL1       -0.2931
     24 C          66.1780   92.3148   12.8067 C.2     1  UNL1        0.2462
     25 O          66.9942   92.3257   14.0651 O.2     1  UNL1       -0.2701
     26 H          64.4125   91.4534   11.8918 H       1  UNL1        0.1502
     27 C          66.5917   93.1580   11.6372 C.ar    1  UNL1        0.0535
     28 C          67.3169   92.5340   10.4819 C.ar    1  UNL1        0.0068
     29 C          67.7305   93.3773    9.3124 C.ar    1  UNL1        0.0298
     30 C          67.4189   94.8445    9.2981 C.ar    1  UNL1        0.1401
     31 F          67.8326   95.6878    8.1285 F       1  UNL1       -0.2042
     32 C          66.6937   95.4684   10.4534 C.ar    1  UNL1        0.0298
     33 C          66.2800   94.6253   11.6229 C.ar    1  UNL1        0.0068
@<TRIPOS>BOND
     1    18    19    2
     2    19    22    1
     3    22    23    1
     4    23    24   am
     5    24    25    2
     6    24    27    1
     7    27    28   ar
     8    28    29   ar
     9    29    30   ar
    10    30    31    1
    11    30    32   ar
    12    32    33   ar
    13    19    20   am
    14    20     1    1
    15     1     2    1
    16     2     3    1
    17     3     4   ar
    18     4     5   ar
    19     5     6   ar
    20     6     7   ar
    21     7     8   ar
    22     8     9    1
    23     9    10    1
    24    10    11    1
    25    11    12   ar
    26    12    13   ar
    27    13    14   ar
    28    14    15    1
    29    14    16   ar
    30    16    17   ar
    31    33    27   ar
    32    17     2    1
    33     8     3   ar
    34    17    11   ar
    35    23    26    1
    36    20    21    1
