@<TRIPOS>MOLECULE
*****
 38 41 0 0 0
SMALL
GASTEIGER

@<TRIPOS>ATOM
      1 N          60.2783   87.9757   10.3123 N.am    1  UNL1       -0.2837
      2 C          61.1469   89.0906    9.8099 C.2     1  UNL1        0.3046
      3 O          60.9835   89.5946    8.4066 O.2     1  UNL1       -0.2526
      4 N          62.1790   89.7016   10.7108 N.am    1  UNL1       -0.2543
      5 C          63.1150   90.8168   10.3502 C.3     1  UNL1        0.1409
      6 C          63.9707   91.1090   11.5470 C.ar    1  UNL1        0.0810
      7 N          65.0681   92.1054   11.7771 N.ar    1  UNL1       -0.2169
      8 C          65.7583   92.1672   13.1075 C.ar    1  UNL1        0.2134
      9 N          66.8557   93.1636   13.3375 N.pl3   1  UNL1       -0.3275
     10 N          65.3511   91.2325   14.2077 N.ar    1  UNL1       -0.2141
     11 C          64.2537   90.2361   13.9776 C.ar    1  UNL1        0.0867
     12 C          63.5635   90.1744   12.6473 C.ar    1  UNL1        0.0309
     13 C          62.4562   89.3045   12.1305 C.3     1  UNL1        0.1248
     14 H          60.3855   87.6450   11.2333 H       1  UNL1        0.1512
     15 H          67.1229   93.7771   12.6154 H       1  UNL1        0.1452
     16 H          67.3087   93.2041   14.2107 H       1  UNL1        0.1452
     17 C          63.8465   89.3014   15.0779 C.ar    1  UNL1        0.0621
     18 C          63.4515   89.8475   16.4180 C.ar    1  UNL1        0.0629
     19 CL         63.4636   91.3281   16.6578 Cl      1  UNL1       -0.0821
     20 C          63.0443   88.9128   17.5183 C.ar    1  UNL1        0.0230
     21 C          63.0322   87.4321   17.2785 C.ar    1  UNL1        0.0615
     22 CL         62.6250   86.4974   18.3787 Cl      1  UNL1       -0.0821
     23 C          63.4272   86.8861   15.9384 C.ar    1  UNL1        0.0484
     24 C          63.8344   87.8208   14.8381 C.ar    1  UNL1        0.1417
     25 O          64.2295   87.2748   13.4980 O.3     1  UNL1       -0.4732
     26 C          63.7144   85.9388   13.0510 C.3     1  UNL1        0.2316
     27 C          64.3194   84.6802   13.5987 C.3     1  UNL1        0.1747
     28 N          63.5603   83.3887   13.5234 N.ar    1  UNL1       -0.2432
     29 C          62.3307   83.0416   14.3093 C.ar    1  UNL1        0.1264
     30 C          61.9079   81.6559   13.9207 C.ar    1  UNL1        0.1796
     31 F          60.7246   80.9104   14.4629 F       1  UNL1       -0.2008
     32 C          62.8763   81.1466   12.8945 C.ar    1  UNL1        0.1512
     33 N          63.8974   82.2175   12.6490 N.ar    1  UNL1       -0.1651
     34 C          59.2462   87.3648    9.4114 C.3     1  UNL1        0.1578
     35 C          60.0900   85.5391    7.1854 C.3     1  UNL1        0.0740
     36 C          59.6681   86.4519    8.2983 C.3     1  UNL1        0.2818
     37 F          58.6622   87.0946    7.3899 F       1  UNL1       -0.2025
     38 F          60.6740   85.8094    9.2067 F       1  UNL1       -0.2025
@<TRIPOS>BOND
     1    35    36    1
     2    36    37    1
     3    36    38    1
     4    36    34    1
     5    34     1    1
     6     1     2   am
     7     2     3    2
     8     2     4   am
     9     4     5    1
    10     5     6    1
    11     6     7   ar
    12     7     8   ar
    13     8     9    1
    14     8    10   ar
    15    10    11   ar
    16    11    17    1
    17    17    18   ar
    18    18    19    1
    19    18    20   ar
    20    20    21   ar
    21    21    22    1
    22    21    23   ar
    23    23    24   ar
    24    24    25    1
    25    25    26    1
    26    26    27    1
    27    27    28    1
    28    28    29   ar
    29    29    30   ar
    30    30    31    1
    31    30    32   ar
    32    32    33   ar
    33    11    12   ar
    34    12    13    1
    35    13     4    1
    36    12     6   ar
    37    24    17   ar
    38    33    28   ar
    39     1    14    1
    40     9    15    1
    41     9    16    1
@<TRIPOS>MOLECULE
*****
 38 41 0 0 0
SMALL
GASTEIGER

@<TRIPOS>ATOM
      1 N          66.1731   93.4440    9.9887 N.am    1  UNL1       -0.2837
      2 C          66.2998   93.5149   11.4816 C.2     1  UNL1        0.3046
      3 O          67.1772   94.5559   12.1112 O.2     1  UNL1       -0.2526
      4 N          65.5492   92.5447   12.3450 N.am    1  UNL1       -0.2543
      5 C          65.5770   92.4939   13.8438 C.3     1  UNL1        0.1409
      6 C          64.6839   91.3728   14.2863 C.ar    1  UNL1        0.0810
      7 N          64.3237   90.8537   15.6467 N.ar    1  UNL1       -0.2169
      8 C          63.3838   89.6925   15.7816 C.ar    1  UNL1        0.2134
      9 N          63.0236   89.1733   17.1420 N.pl3   1  UNL1       -0.3275
     10 N          62.8040   89.0505   14.5562 N.ar    1  UNL1       -0.2141
     11 C          63.1643   89.5697   13.1957 C.ar    1  UNL1        0.0867
     12 C          64.1042   90.7308   13.0608 C.ar    1  UNL1        0.0309
     13 C          64.6390   91.4551   11.8610 C.3     1  UNL1        0.1248
     14 H          65.5972   92.7607    9.5755 H       1  UNL1        0.1512
     15 H          63.4041   89.5947   17.9463 H       1  UNL1        0.1452
     16 H          62.4067   88.4112   17.2306 H       1  UNL1        0.1452
     17 C          62.5846   88.9277   11.9703 C.ar    1  UNL1        0.0621
     18 C          61.8320   89.7581   10.9732 C.ar    1  UNL1        0.0629
     19 CL         61.6593   91.2305   11.2016 Cl      1  UNL1       -0.0821
     20 C          61.2523   89.1161    9.7477 C.ar    1  UNL1        0.0230
     21 C          61.4251   87.6437    9.5194 C.ar    1  UNL1        0.0615
     22 CL         60.8454   87.0017    8.2939 Cl      1  UNL1       -0.0821
     23 C          62.1776   86.8133   10.5164 C.ar    1  UNL1        0.0484
     24 C          62.7573   87.4553   11.7419 C.ar    1  UNL1        0.1417
     25 O          63.5098   86.6248   12.7390 O.3     1  UNL1       -0.4732
     26 C          63.4580   85.1278   12.6596 C.3     1  UNL1        0.2316
     27 C          62.7178   84.3465   13.7044 C.3     1  UNL1        0.1747
     28 N          62.4982   82.8737   13.5242 N.ar    1  UNL1       -0.2432
     29 C          62.8956   82.0631   12.3262 C.ar    1  UNL1        0.1264
     30 C          62.4857   80.6412   12.5719 C.ar    1  UNL1        0.1796
     31 F          62.6906   79.4897   11.6328 F       1  UNL1       -0.2008
     32 C          61.8350   80.5731   13.9218 C.ar    1  UNL1        0.1512
     33 N          61.8427   81.9528   14.5102 N.ar    1  UNL1       -0.1651
     34 C          66.9237   94.4141    9.1253 C.3     1  UNL1        0.1578
     35 C          65.5425   96.8558    8.0621 C.3     1  UNL1        0.0740
     36 C          66.2331   95.6350    8.5937 C.3     1  UNL1        0.2818
     37 F          66.0134   96.1212    9.9957 F       1  UNL1       -0.2025
     38 F          66.4528   95.1487    7.1918 F       1  UNL1       -0.2025
@<TRIPOS>BOND
     1    35    36    1
     2    36    37    1
     3    36    38    1
     4    36    34    1
     5    34     1    1
     6     1     2   am
     7     2     3    2
     8     2     4   am
     9     4     5    1
    10     5     6    1
    11     6     7   ar
    12     7     8   ar
    13     8     9    1
    14     8    10   ar
    15    10    11   ar
    16    11    17    1
    17    17    18   ar
    18    18    19    1
    19    18    20   ar
    20    20    21   ar
    21    21    22    1
    22    21    23   ar
    23    23    24   ar
    24    24    25    1
    25    25    26    1
    26    26    27    1
    27    27    28    1
    28    28    29   ar
    29    29    30   ar
    30    30    31    1
    31    30    32   ar
    32    32    33   ar
    33    11    12   ar
    34    12    13    1
    35    13     4    1
    36    12     6   ar
    37    24    17   ar
    38    33    28   ar
    39     1    14    1
    40     9    15    1
    41     9    16    1
@<TRIPOS>MOLECULE
*****
 38 41 0 0 0
SMALL
GASTEIGER

@<TRIPOS>ATOM
      1 N          65.0621   93.9663   10.8406 N.am    1  UNL1       -0.2837
      2 C          65.5717   93.3362   12.1028 C.2     1  UNL1        0.3046
      3 O          66.5891   94.0522   12.9407 O.2     1  UNL1       -0.2526
      4 N          65.0638   91.9901   12.5272 N.am    1  UNL1       -0.2543
      5 C          65.4786   91.2390   13.7576 C.3     1  UNL1        0.1409
      6 C          64.7232   89.9434   13.7865 C.ar    1  UNL1        0.0810
      7 N          64.7242   88.8025   14.7602 N.ar    1  UNL1       -0.2169
      8 C          63.8435   87.6118   14.5215 C.ar    1  UNL1        0.2134
      9 N          63.8446   86.4709   15.4952 N.pl3   1  UNL1       -0.3275
     10 N          62.9619   87.5622   13.3089 N.ar    1  UNL1       -0.2141
     11 C          62.9609   88.7032   12.3351 C.ar    1  UNL1        0.0867
     12 C          63.8415   89.8938   12.5739 C.ar    1  UNL1        0.0309
     13 C          64.0521   91.1587   11.7957 C.3     1  UNL1        0.1248
     14 H          64.3943   93.4963   10.2906 H       1  UNL1        0.1512
     15 H          64.4232   86.5035   16.2910 H       1  UNL1        0.1452
     16 H          63.2666   85.6895   15.3385 H       1  UNL1        0.1452
     17 C          62.0793   88.6536   11.1226 C.ar    1  UNL1        0.0621
     18 C          61.1178   89.7718   10.8481 C.ar    1  UNL1        0.0629
     19 CL         61.0380   90.9395   11.7861 Cl      1  UNL1       -0.0821
     20 C          60.2362   89.7221    9.6355 C.ar    1  UNL1        0.0230
     21 C          60.3160   88.5543    8.6975 C.ar    1  UNL1        0.0615
     22 CL         59.4344   88.5047    7.4849 Cl      1  UNL1       -0.0821
     23 C          61.2775   87.4362    8.9720 C.ar    1  UNL1        0.0484
     24 C          62.1591   87.4858   10.1846 C.ar    1  UNL1        0.1417
     25 O          63.1206   86.3676   10.4591 O.3     1  UNL1       -0.4732
     26 C          62.7220   84.9494   10.1765 C.3     1  UNL1        0.2316
     27 C          63.4706   83.8182   10.8168 C.3     1  UNL1        0.1747
     28 N          63.0510   83.3084   12.1636 N.ar    1  UNL1       -0.2432
     29 C          62.2315   82.0796   12.4252 C.ar    1  UNL1        0.1264
     30 C          62.0513   81.9497   13.9086 C.ar    1  UNL1        0.1796
     31 F          61.2956   80.8622   14.6131 F       1  UNL1       -0.2008
     32 C          62.7595   83.0982   14.5639 C.ar    1  UNL1        0.1512
     33 N          63.3774   83.9379   13.4854 N.ar    1  UNL1       -0.1651
     34 C          65.5700   95.3124   10.4163 C.3     1  UNL1        0.1578
     35 C          67.5272   95.5320    8.1533 C.3     1  UNL1        0.0740
     36 C          66.5486   95.4222    9.2847 C.3     1  UNL1        0.2818
     37 F          65.5680   96.2593    8.5179 F       1  UNL1       -0.2025
     38 F          67.5291   94.5852   10.0515 F       1  UNL1       -0.2025
@<TRIPOS>BOND
     1    35    36    1
     2    36    37    1
     3    36    38    1
     4    36    34    1
     5    34     1    1
     6     1     2   am
     7     2     3    2
     8     2     4   am
     9     4     5    1
    10     5     6    1
    11     6     7   ar
    12     7     8   ar
    13     8     9    1
    14     8    10   ar
    15    10    11   ar
    16    11    17    1
    17    17    18   ar
    18    18    19    1
    19    18    20   ar
    20    20    21   ar
    21    21    22    1
    22    21    23   ar
    23    23    24   ar
    24    24    25    1
    25    25    26    1
    26    26    27    1
    27    27    28    1
    28    28    29   ar
    29    29    30   ar
    30    30    31    1
    31    30    32   ar
    32    32    33   ar
    33    11    12   ar
    34    12    13    1
    35    13     4    1
    36    12     6   ar
    37    24    17   ar
    38    33    28   ar
    39     1    14    1
    40     9    15    1
    41     9    16    1
@<TRIPOS>MOLECULE
*****
 38 41 0 0 0
SMALL
GASTEIGER

@<TRIPOS>ATOM
      1 N          64.0463   84.6447   11.4399 N.am    1  UNL1       -0.2837
      2 C          62.6207   84.9271   11.0684 C.2     1  UNL1        0.3046
      3 O          61.7549   83.8283   10.5274 O.2     1  UNL1       -0.2526
      4 N          62.0610   86.3084   11.2381 N.am    1  UNL1       -0.2543
      5 C          60.6617   86.7390   10.9116 C.3     1  UNL1        0.1409
      6 C          60.5382   88.1983   11.2358 C.ar    1  UNL1        0.0810
      7 N          59.3920   89.1588   11.1193 N.ar    1  UNL1       -0.2169
      8 C          59.5687   90.5908   11.5296 C.ar    1  UNL1        0.2134
      9 N          58.4225   91.5513   11.4132 N.pl3   1  UNL1       -0.3275
     10 N          60.8917   91.0622   12.0565 N.ar    1  UNL1       -0.2141
     11 C          62.0379   90.1016   12.1730 C.ar    1  UNL1        0.0867
     12 C          61.8612   88.6697   11.7626 C.ar    1  UNL1        0.0309
     13 C          62.8023   87.5017   11.7640 C.3     1  UNL1        0.1248
     14 H          64.6146   85.3659   11.7950 H       1  UNL1        0.1512
     15 H          57.5542   91.2419   11.0674 H       1  UNL1        0.1452
     16 H          58.5385   92.4911   11.6825 H       1  UNL1        0.1452
     17 C          63.3609   90.5730   12.6998 C.ar    1  UNL1        0.0621
     18 C          64.2980   91.3291   11.8053 C.ar    1  UNL1        0.0629
     19 CL         63.9122   91.6138   10.3840 Cl      1  UNL1       -0.0821
     20 C          65.6210   91.8005   12.3321 C.ar    1  UNL1        0.0230
     21 C          66.0068   91.5157   13.7535 C.ar    1  UNL1        0.0615
     22 CL         67.3298   91.9871   14.2803 Cl      1  UNL1       -0.0821
     23 C          65.0697   90.7596   14.6479 C.ar    1  UNL1        0.0484
     24 C          63.7467   90.2882   14.1211 C.ar    1  UNL1        0.1417
     25 O          62.8095   89.5321   15.0156 O.3     1  UNL1       -0.4732
     26 C          63.0782   89.4547   16.4893 C.3     1  UNL1        0.2316
     27 C          63.0443   88.1284   17.1891 C.3     1  UNL1        0.1747
     28 N          63.2320   86.8625   16.4067 N.ar    1  UNL1       -0.2432
     29 C          62.5448   85.5548   16.6672 C.ar    1  UNL1        0.1264
     30 C          63.0280   84.5661   15.6479 C.ar    1  UNL1        0.1796
     31 F          62.6004   83.1325   15.5383 F       1  UNL1       -0.2008
     32 C          64.0139   85.2627   14.7575 C.ar    1  UNL1        0.1512
     33 N          64.1399   86.6819   15.2265 N.ar    1  UNL1       -0.1651
     34 C          64.6060   83.2634   11.2702 C.3     1  UNL1        0.1578
     35 C          63.4685   80.9798   12.8485 C.3     1  UNL1        0.0740
     36 C          64.0372   82.1216   12.0594 C.3     1  UNL1        0.2818
     37 F          63.4886   81.5231   10.7980 F       1  UNL1       -0.2025
     38 F          64.5859   82.7200   13.3206 F       1  UNL1       -0.2025
@<TRIPOS>BOND
     1    35    36    1
     2    36    37    1
     3    36    38    1
     4    36    34    1
     5    34     1    1
     6     1     2   am
     7     2     3    2
     8     2     4   am
     9     4     5    1
    10     5     6    1
    11     6     7   ar
    12     7     8   ar
    13     8     9    1
    14     8    10   ar
    15    10    11   ar
    16    11    17    1
    17    17    18   ar
    18    18    19    1
    19    18    20   ar
    20    20    21   ar
    21    21    22    1
    22    21    23   ar
    23    23    24   ar
    24    24    25    1
    25    25    26    1
    26    26    27    1
    27    27    28    1
    28    28    29   ar
    29    29    30   ar
    30    30    31    1
    31    30    32   ar
    32    32    33   ar
    33    11    12   ar
    34    12    13    1
    35    13     4    1
    36    12     6   ar
    37    24    17   ar
    38    33    28   ar
    39     1    14    1
    40     9    15    1
    41     9    16    1
@<TRIPOS>MOLECULE
*****
 38 41 0 0 0
SMALL
GASTEIGER

@<TRIPOS>ATOM
      1 N          64.8349   89.7146   14.0345 N.am    1  UNL1       -0.2837
      2 C          63.6977   90.2917   13.2448 C.2     1  UNL1        0.3046
      3 O          63.3627   91.7486   13.3675 O.2     1  UNL1       -0.2526
      4 N          62.8955   89.4119   12.3325 N.am    1  UNL1       -0.2543
      5 C          61.7363   89.8448   11.4846 C.3     1  UNL1        0.1409
      6 C          61.2360   88.6451   10.7359 C.ar    1  UNL1        0.0810
      7 N          60.1163   88.4704    9.7533 N.ar    1  UNL1       -0.2169
      8 C          59.8466   87.1212    9.1557 C.ar    1  UNL1        0.2134
      9 N          58.7269   86.9464    8.1730 N.pl3   1  UNL1       -0.3275
     10 N          60.6966   85.9468    9.5408 N.ar    1  UNL1       -0.2141
     11 C          61.8164   86.1216   10.5235 C.ar    1  UNL1        0.0867
     12 C          62.0861   87.4707   11.1210 C.ar    1  UNL1        0.0309
     13 C          63.1117   87.9446   12.1077 C.3     1  UNL1        0.1248
     14 H          65.0548   88.7583   13.9540 H       1  UNL1        0.1512
     15 H          58.1690   87.7172    7.9202 H       1  UNL1        0.1452
     16 H          58.5498   86.0610    7.7808 H       1  UNL1        0.1452
     17 C          62.6664   84.9472   10.9086 C.ar    1  UNL1        0.0621
     18 C          63.5052   84.2572    9.8741 C.ar    1  UNL1        0.0629
     19 CL         63.4940   84.7415    8.4545 Cl      1  UNL1       -0.0821
     20 C          64.3552   83.0828   10.2592 C.ar    1  UNL1        0.0230
     21 C          64.3664   82.5985   11.6788 C.ar    1  UNL1        0.0615
     22 CL         65.2164   81.4241   12.0640 Cl      1  UNL1       -0.0821
     23 C          63.5276   83.2886   12.7133 C.ar    1  UNL1        0.0484
     24 C          62.6776   84.4629   12.3282 C.ar    1  UNL1        0.1417
     25 O          61.8388   85.1530   13.3628 O.3     1  UNL1       -0.4732
     26 C          61.6524   84.5302   14.7145 C.3     1  UNL1        0.2316
     27 C          62.7142   84.6819   15.7631 C.3     1  UNL1        0.1747
     28 N          62.7792   85.9322   16.5892 N.ar    1  UNL1       -0.2432
     29 C          63.2209   87.2834   16.1103 C.ar    1  UNL1        0.1264
     30 C          63.1287   88.2372   17.2643 C.ar    1  UNL1        0.1796
     31 F          63.4744   89.6964   17.2319 F       1  UNL1       -0.2008
     32 C          62.6300   87.4754   18.4564 C.ar    1  UNL1        0.1512
     33 N          62.4141   86.0509   18.0392 N.ar    1  UNL1       -0.1651
     34 C          65.6371   90.5944   14.9469 C.3     1  UNL1        0.1578
     35 C          66.4884   93.3224   14.0338 C.3     1  UNL1        0.0740
     36 C          66.0628   91.9584   14.4903 C.3     1  UNL1        0.2818
     37 F          66.7533   91.3469   13.3073 F       1  UNL1       -0.2025
     38 F          65.3723   92.5698   15.6732 F       1  UNL1       -0.2025
@<TRIPOS>BOND
     1    35    36    1
     2    36    37    1
     3    36    38    1
     4    36    34    1
     5    34     1    1
     6     1     2   am
     7     2     3    2
     8     2     4   am
     9     4     5    1
    10     5     6    1
    11     6     7   ar
    12     7     8   ar
    13     8     9    1
    14     8    10   ar
    15    10    11   ar
    16    11    17    1
    17    17    18   ar
    18    18    19    1
    19    18    20   ar
    20    20    21   ar
    21    21    22    1
    22    21    23   ar
    23    23    24   ar
    24    24    25    1
    25    25    26    1
    26    26    27    1
    27    27    28    1
    28    28    29   ar
    29    29    30   ar
    30    30    31    1
    31    30    32   ar
    32    32    33   ar
    33    11    12   ar
    34    12    13    1
    35    13     4    1
    36    12     6   ar
    37    24    17   ar
    38    33    28   ar
    39     1    14    1
    40     9    15    1
    41     9    16    1
@<TRIPOS>MOLECULE
*****
 38 41 0 0 0
SMALL
GASTEIGER

@<TRIPOS>ATOM
      1 N          62.5742   80.7420   11.8506 N.am    1  UNL1       -0.2837
      2 C          63.3513   81.4125   12.9445 C.2     1  UNL1        0.3046
      3 O          64.0757   80.5857   13.9650 O.2     1  UNL1       -0.2526
      4 N          63.4040   82.9097   13.0177 N.am    1  UNL1       -0.2543
      5 C          64.1363   83.7168   14.0484 C.3     1  UNL1        0.1409
      6 C          63.9185   85.1687   13.7409 C.ar    1  UNL1        0.0810
      7 N          64.3976   86.4203   14.4148 N.ar    1  UNL1       -0.2169
      8 C          64.0097   87.7621   13.8678 C.ar    1  UNL1        0.2134
      9 N          64.4888   89.0137   14.5417 N.pl3   1  UNL1       -0.3275
     10 N          63.1428   87.8524   12.6471 N.ar    1  UNL1       -0.2141
     11 C          62.6637   86.6008   11.9732 C.ar    1  UNL1        0.0867
     12 C          63.0516   85.2590   12.5201 C.ar    1  UNL1        0.0309
     13 C          62.7336   83.8629   12.0732 C.3     1  UNL1        0.1248
     14 H          62.0988   81.2846   11.1808 H       1  UNL1        0.1512
     15 H          65.0578   88.9544   15.3429 H       1  UNL1        0.1452
     16 H          64.2342   89.8943   14.1827 H       1  UNL1        0.1452
     17 C          61.7968   86.6910   10.7524 C.ar    1  UNL1        0.0621
     18 C          62.1598   85.9226    9.5163 C.ar    1  UNL1        0.0629
     19 CL         63.3896   85.0640    9.5010 Cl      1  UNL1       -0.0821
     20 C          61.2929   86.0128    8.2955 C.ar    1  UNL1        0.0230
     21 C          60.0630   86.8715    8.3108 C.ar    1  UNL1        0.0615
     22 CL         59.1961   86.9617    7.0901 Cl      1  UNL1       -0.0821
     23 C          59.7001   87.6398    9.5469 C.ar    1  UNL1        0.0484
     24 C          60.5670   87.5496   10.7677 C.ar    1  UNL1        0.1417
     25 O          60.2040   88.3180   12.0038 O.3     1  UNL1       -0.4732
     26 C          60.3423   89.8114   12.0262 C.3     1  UNL1        0.2316
     27 C          61.1123   90.5096   10.9447 C.3     1  UNL1        0.1747
     28 N          62.4929   91.0267   11.2213 N.ar    1  UNL1       -0.2432
     29 C          63.4486   91.5767   10.2043 C.ar    1  UNL1        0.1264
     30 C          64.7066   91.9745   10.9179 C.ar    1  UNL1        0.1796
     31 F          65.9282   92.5716   10.2846 F       1  UNL1       -0.2008
     32 C          64.5284   91.6703   12.3759 C.ar    1  UNL1        0.1512
     33 N          63.1603   91.0846   12.5634 N.ar    1  UNL1       -0.1651
     34 C          62.5216   79.2447   11.7773 C.3     1  UNL1        0.1578
     35 C          63.3978   77.8335    9.2792 C.3     1  UNL1        0.0740
     36 C          62.9597   78.5391   10.5282 C.3     1  UNL1        0.2818
     37 F          63.0251   77.2442   11.2827 F       1  UNL1       -0.2025
     38 F          62.8943   79.8339    9.7739 F       1  UNL1       -0.2025
@<TRIPOS>BOND
     1    35    36    1
     2    36    37    1
     3    36    38    1
     4    36    34    1
     5    34     1    1
     6     1     2   am
     7     2     3    2
     8     2     4   am
     9     4     5    1
    10     5     6    1
    11     6     7   ar
    12     7     8   ar
    13     8     9    1
    14     8    10   ar
    15    10    11   ar
    16    11    17    1
    17    17    18   ar
    18    18    19    1
    19    18    20   ar
    20    20    21   ar
    21    21    22    1
    22    21    23   ar
    23    23    24   ar
    24    24    25    1
    25    25    26    1
    26    26    27    1
    27    27    28    1
    28    28    29   ar
    29    29    30   ar
    30    30    31    1
    31    30    32   ar
    32    32    33   ar
    33    11    12   ar
    34    12    13    1
    35    13     4    1
    36    12     6   ar
    37    24    17   ar
    38    33    28   ar
    39     1    14    1
    40     9    15    1
    41     9    16    1
@<TRIPOS>MOLECULE
*****
 38 41 0 0 0
SMALL
GASTEIGER

@<TRIPOS>ATOM
      1 N          64.1999   85.7875   13.3772 N.am    1  UNL1       -0.2837
      2 C          63.6467   86.3203   14.6656 C.2     1  UNL1        0.3046
      3 O          62.8982   85.4102   15.5937 O.2     1  UNL1       -0.2526
      4 N          63.8422   87.7632   15.0260 N.am    1  UNL1       -0.2543
      5 C          63.3491   88.4351   16.2731 C.3     1  UNL1        0.1409
      6 C          63.7672   89.8747   16.2205 C.ar    1  UNL1        0.0810
      7 N          63.5607   91.0153   17.1724 N.ar    1  UNL1       -0.2169
      8 C          64.1057   92.3739   16.8447 C.ar    1  UNL1        0.2134
      9 N          63.8992   93.5145   17.7966 N.pl3   1  UNL1       -0.3275
     10 N          64.8573   92.5917   15.5649 N.ar    1  UNL1       -0.2141
     11 C          65.0638   91.4510   14.6130 C.ar    1  UNL1        0.0867
     12 C          64.5187   90.0925   14.9407 C.ar    1  UNL1        0.0309
     13 C          64.5651   88.7876   14.2025 C.3     1  UNL1        0.1248
     14 H          64.6912   86.3849   12.7680 H       1  UNL1        0.1512
     15 H          63.4059   93.3715   18.6366 H       1  UNL1        0.1452
     16 H          64.2569   94.4061   17.5815 H       1  UNL1        0.1452
     17 C          65.8153   91.6688   13.3332 C.ar    1  UNL1        0.0621
     18 C          67.3120   91.7674   13.3499 C.ar    1  UNL1        0.0629
     19 CL         68.0571   91.6482   14.6463 Cl      1  UNL1       -0.0821
     20 C          68.0636   91.9853   12.0702 C.ar    1  UNL1        0.0230
     21 C          67.3184   92.1045   10.7738 C.ar    1  UNL1        0.0615
     22 CL         68.0700   92.3224    9.4940 Cl      1  UNL1       -0.0821
     23 C          65.8218   92.0059   10.7571 C.ar    1  UNL1        0.0484
     24 C          65.0702   91.7881   12.0369 C.ar    1  UNL1        0.1417
     25 O          63.5735   91.6895   12.0202 O.3     1  UNL1       -0.4732
     26 C          62.9098   90.4376   11.5281 C.3     1  UNL1        0.2316
     27 C          61.9471   90.5008   10.3796 C.3     1  UNL1        0.1747
     28 N          61.4162   89.2347    9.7753 N.ar    1  UNL1       -0.2432
     29 C          60.1564   89.1017    8.9720 C.ar    1  UNL1        0.1264
     30 C          60.0136   87.6641    8.5685 C.ar    1  UNL1        0.1796
     31 F          58.8956   87.0839    7.7540 F       1  UNL1       -0.2008
     32 C          61.1852   86.9086    9.1224 C.ar    1  UNL1        0.1512
     33 N          62.0520   87.8793    9.8682 N.ar    1  UNL1       -0.1651
     34 C          64.0044   84.3446   13.0168 C.3     1  UNL1        0.1578
     35 C          63.7633   83.5371   10.1376 C.3     1  UNL1        0.0740
     36 C          63.8839   83.9409   11.5771 C.3     1  UNL1        0.2818
     37 F          62.9470   85.0869   11.3341 F       1  UNL1       -0.2025
     38 F          64.8206   82.7949   11.8201 F       1  UNL1       -0.2025
@<TRIPOS>BOND
     1    35    36    1
     2    36    37    1
     3    36    38    1
     4    36    34    1
     5    34     1    1
     6     1     2   am
     7     2     3    2
     8     2     4   am
     9     4     5    1
    10     5     6    1
    11     6     7   ar
    12     7     8   ar
    13     8     9    1
    14     8    10   ar
    15    10    11   ar
    16    11    17    1
    17    17    18   ar
    18    18    19    1
    19    18    20   ar
    20    20    21   ar
    21    21    22    1
    22    21    23   ar
    23    23    24   ar
    24    24    25    1
    25    25    26    1
    26    26    27    1
    27    27    28    1
    28    28    29   ar
    29    29    30   ar
    30    30    31    1
    31    30    32   ar
    32    32    33   ar
    33    11    12   ar
    34    12    13    1
    35    13     4    1
    36    12     6   ar
    37    24    17   ar
    38    33    28   ar
    39     1    14    1
    40     9    15    1
    41     9    16    1
@<TRIPOS>MOLECULE
*****
 38 41 0 0 0
SMALL
GASTEIGER

@<TRIPOS>ATOM
      1 N          65.4938   91.5097   11.7600 N.am    1  UNL1       -0.2837
      2 C          65.1742   91.6931   13.2140 C.2     1  UNL1        0.3046
      3 O          65.3703   93.0317   13.8619 O.2     1  UNL1       -0.2526
      4 N          64.6586   90.5380   14.0201 N.am    1  UNL1       -0.2543
      5 C          64.2978   90.5699   15.4757 C.3     1  UNL1        0.1409
      6 C          63.8294   89.1998   15.8673 C.ar    1  UNL1        0.0810
      7 N          63.3472   88.6388   17.1722 N.ar    1  UNL1       -0.2169
      8 C          62.9362   87.1990   17.2635 C.ar    1  UNL1        0.2134
      9 N          62.4540   86.6381   18.5684 N.pl3   1  UNL1       -0.3275
     10 N          63.0075   86.3203   16.0500 N.ar    1  UNL1       -0.2141
     11 C          63.4897   86.8814   14.7450 C.ar    1  UNL1        0.0867
     12 C          63.9007   88.3211   14.6538 C.ar    1  UNL1        0.0309
     13 C          64.4131   89.1482   13.5121 C.3     1  UNL1        0.1248
     14 H          65.3651   90.6312   11.3347 H       1  UNL1        0.1512
     15 H          62.4072   87.2148   19.3649 H       1  UNL1        0.1452
     16 H          62.1843   85.6931   18.6283 H       1  UNL1        0.1452
     17 C          63.5610   86.0027   13.5314 C.ar    1  UNL1        0.0621
     18 C          64.3337   84.7179   13.5801 C.ar    1  UNL1        0.0629
     19 CL         65.0351   84.3119   14.8423 Cl      1  UNL1       -0.0821
     20 C          64.4050   83.8392   12.3665 C.ar    1  UNL1        0.0230
     21 C          63.7036   84.2453   11.1043 C.ar    1  UNL1        0.0615
     22 CL         63.7748   83.3666    9.8907 Cl      1  UNL1       -0.0821
     23 C          62.9309   85.5300   11.0557 C.ar    1  UNL1        0.0484
     24 C          62.8596   86.4087   12.2693 C.ar    1  UNL1        0.1417
     25 O          62.0869   87.6935   12.2206 O.3     1  UNL1       -0.4732
     26 C          62.0063   88.4722   10.9412 C.3     1  UNL1        0.2316
     27 C          60.6726   88.7411   10.3095 C.3     1  UNL1        0.1747
     28 N          60.2294   87.9383    9.1226 N.ar    1  UNL1       -0.2432
     29 C          60.5884   86.5094    8.8408 C.ar    1  UNL1        0.1264
     30 C          59.9302   86.1114    7.5530 C.ar    1  UNL1        0.1796
     31 F          60.0218   84.7666    6.8949 F       1  UNL1       -0.2008
     32 C          59.1644   87.2943    7.0389 C.ar    1  UNL1        0.1512
     33 N          59.3493   88.4234    8.0090 N.ar    1  UNL1       -0.1651
     34 C          66.0095   92.6649   10.9539 C.3     1  UNL1        0.1578
     35 C          68.6111   92.4225    9.4799 C.3     1  UNL1        0.0740
     36 C          67.3103   92.5437   10.2169 C.3     1  UNL1        0.2818
     37 F          66.7658   93.4030    9.1145 F       1  UNL1       -0.2025
     38 F          67.8548   91.6845   11.3192 F       1  UNL1       -0.2025
@<TRIPOS>BOND
     1    35    36    1
     2    36    37    1
     3    36    38    1
     4    36    34    1
     5    34     1    1
     6     1     2   am
     7     2     3    2
     8     2     4   am
     9     4     5    1
    10     5     6    1
    11     6     7   ar
    12     7     8   ar
    13     8     9    1
    14     8    10   ar
    15    10    11   ar
    16    11    17    1
    17    17    18   ar
    18    18    19    1
    19    18    20   ar
    20    20    21   ar
    21    21    22    1
    22    21    23   ar
    23    23    24   ar
    24    24    25    1
    25    25    26    1
    26    26    27    1
    27    27    28    1
    28    28    29   ar
    29    29    30   ar
    30    30    31    1
    31    30    32   ar
    32    32    33   ar
    33    11    12   ar
    34    12    13    1
    35    13     4    1
    36    12     6   ar
    37    24    17   ar
    38    33    28   ar
    39     1    14    1
    40     9    15    1
    41     9    16    1
@<TRIPOS>MOLECULE
*****
 38 41 0 0 0
SMALL
GASTEIGER

@<TRIPOS>ATOM
      1 N          64.7186   89.7069   13.8951 N.am    1  UNL1       -0.2837
      2 C          63.6162   90.4153   13.1651 C.2     1  UNL1        0.3046
      3 O          63.3261   91.8569   13.4612 O.2     1  UNL1       -0.2526
      4 N          62.8041   89.6822   12.1390 N.am    1  UNL1       -0.2543
      5 C          61.6763   90.2555   11.3332 C.3     1  UNL1        0.1409
      6 C          61.1522   89.1747   10.4347 C.ar    1  UNL1        0.0810
      7 N          60.0469   89.1604    9.4208 N.ar    1  UNL1       -0.2169
      8 C          59.7455   87.9049    8.6574 C.ar    1  UNL1        0.2134
      9 N          58.6402   87.8906    7.6435 N.pl3   1  UNL1       -0.3275
     10 N          60.5494   86.6635    8.9080 N.ar    1  UNL1       -0.2141
     11 C          61.6548   86.6778    9.9219 C.ar    1  UNL1        0.0867
     12 C          61.9562   87.9334   10.6853 C.ar    1  UNL1        0.0309
     13 C          62.9771   88.2470   11.7386 C.3     1  UNL1        0.1248
     14 H          64.9090   88.7607   13.7008 H       1  UNL1        0.1512
     15 H          58.1125   88.7054    7.4791 H       1  UNL1        0.1452
     16 H          58.4423   87.0666    7.1425 H       1  UNL1        0.1452
     17 C          62.4588   85.4365   10.1725 C.ar    1  UNL1        0.0621
     18 C          63.1701   84.7617    9.0372 C.ar    1  UNL1        0.0629
     19 CL         63.0773   85.3282    7.6514 Cl      1  UNL1       -0.0821
     20 C          63.9740   83.5204    9.2877 C.ar    1  UNL1        0.0230
     21 C          64.0667   82.9538   10.6736 C.ar    1  UNL1        0.0615
     22 CL         64.8707   81.7125   10.9241 Cl      1  UNL1       -0.0821
     23 C          63.3555   83.6286   11.8088 C.ar    1  UNL1        0.0484
     24 C          62.5515   84.8699   11.5582 C.ar    1  UNL1        0.1417
     25 O          61.8402   85.5447   12.6935 O.3     1  UNL1       -0.4732
     26 C          62.3722   85.4221   14.0906 C.3     1  UNL1        0.2316
     27 C          61.9589   84.2655   14.9517 C.3     1  UNL1        0.1747
     28 N          62.3966   82.8746   14.6001 N.ar    1  UNL1       -0.2432
     29 C          61.5177   81.7816   14.0681 C.ar    1  UNL1        0.1264
     30 C          62.3680   80.5639   13.8579 C.ar    1  UNL1        0.1796
     31 F          61.8967   79.2386   13.3370 F       1  UNL1       -0.2008
     32 C          63.7725   80.9043   14.2600 C.ar    1  UNL1        0.1512
     33 N          63.7901   82.3324   14.7187 N.ar    1  UNL1       -0.1651
     34 C          65.5307   90.4400   14.9213 C.3     1  UNL1        0.1578
     35 C          66.8177   93.0588   14.2243 C.3     1  UNL1        0.0740
     36 C          66.1742   91.7495   14.5727 C.3     1  UNL1        0.2818
     37 F          66.6461   91.1713   13.2715 F       1  UNL1       -0.2025
     38 F          65.7024   92.3276   15.8739 F       1  UNL1       -0.2025
@<TRIPOS>BOND
     1    35    36    1
     2    36    37    1
     3    36    38    1
     4    36    34    1
     5    34     1    1
     6     1     2   am
     7     2     3    2
     8     2     4   am
     9     4     5    1
    10     5     6    1
    11     6     7   ar
    12     7     8   ar
    13     8     9    1
    14     8    10   ar
    15    10    11   ar
    16    11    17    1
    17    17    18   ar
    18    18    19    1
    19    18    20   ar
    20    20    21   ar
    21    21    22    1
    22    21    23   ar
    23    23    24   ar
    24    24    25    1
    25    25    26    1
    26    26    27    1
    27    27    28    1
    28    28    29   ar
    29    29    30   ar
    30    30    31    1
    31    30    32   ar
    32    32    33   ar
    33    11    12   ar
    34    12    13    1
    35    13     4    1
    36    12     6   ar
    37    24    17   ar
    38    33    28   ar
    39     1    14    1
    40     9    15    1
    41     9    16    1
