@<TRIPOS>MOLECULE
*****
 32 34 0 0 0
SMALL
GASTEIGER

@<TRIPOS>ATOM
      1 N1         65.5972   90.1316   14.6339 N.am    1  <1>        -0.2946
      2 C1         64.1991   89.7223   14.9918 C.2     1  <1>         0.2618
      3 O1         63.1177   90.7567   15.0938 O.2     1  <1>        -0.2686
      4 H1         66.3069   89.4527   14.5670 H       1  <1>         0.1501
      5 C2         63.8826   88.2786   15.2476 C.ar    1  <1>         0.1107
      6 C3         63.5404   87.6730   16.5767 C.ar    1  <1>         0.0231
      7 C4         63.2989   86.2071   16.3698 C.ar    1  <1>         0.0186
      8 C5         63.4919   85.9067   14.9129 C.ar    1  <1>         0.0569
      9 N2         63.8526   87.1869   14.2194 N.ar    1  <1>        -0.3496
     10 H2         64.0373   87.2921   13.2581 H       1  <1>         0.1661
     11 C6         63.3493   84.5620   14.2635 C.ar    1  <1>         0.0201
     12 C7         64.2039   84.2044   13.0839 C.ar    1  <1>         0.0321
     13 C8         64.0612   82.8598   12.4346 C.ar    1  <1>         0.1528
     14 F1         64.9159   82.5021   11.2548 F       1  <1>        -0.2032
     15 C9         63.0639   81.8728   12.9649 C.ar    1  <1>         0.1124
     16 Cl1        62.9212   80.5282   12.3155 Cl      1  <1>        -0.0775
     17 C10        62.2092   82.2305   14.1445 C.ar    1  <1>         0.1528
     18 F2         61.2119   81.2435   14.6749 F       1  <1>        -0.2032
     19 C11        62.3519   83.5750   14.7939 C.ar    1  <1>         0.0321
     20 C12        65.9137   91.5753   14.3781 C.3     1  <1>         0.1341
     21 C13        65.9618   92.0947   12.9717 C.ar    1  <1>         0.1071
     22 N3         67.1542   92.7067   12.2982 N.ar    1  <1>        -0.2428
     23 C14        66.7553   93.0836   10.9022 C.ar    1  <1>         0.0952
     24 C15        65.3164   92.7045   10.7129 C.ar    1  <1>         0.0538
     25 S1         64.8260   92.0934   11.9920 S.2     1  <1>        -0.0689
     26 C16        67.6400   93.7266    9.8756 C.3     1  <1>         0.1834
     27 O2         69.0933   93.3623    9.8040 O.3     1  <1>        -0.3760
     28 H3         69.5410   93.6579   10.6121 H       1  <1>         0.2110
     29 N4         65.1030   92.7819   16.5314 N.3     1  <1>        -0.3194
     30 C17        66.1821   92.4996   15.5286 C.3     1  <1>         0.0917
     31 H4         65.4565   93.4256   17.2392 H       1  <1>         0.1189
     32 H5         64.8166   91.9103   16.9772 H       1  <1>         0.1189
@<TRIPOS>BOND
     1    29    30    1
     2    20    30    1
     3    20     1    1
     4     1     2   am
     5     2     3    2
     6     2     5    1
     7     5     6   ar
     8     6     7   ar
     9     7     8   ar
    10     8    11    1
    11    11    12   ar
    12    12    13   ar
    13    13    14    1
    14    13    15   ar
    15    15    16    1
    16    15    17   ar
    17    17    18    1
    18    17    19   ar
    19     8     9   ar
    20    20    21    1
    21    21    22   ar
    22    22    23   ar
    23    23    26    1
    24    26    27    1
    25    23    24   ar
    26    24    25   ar
    27     9     5   ar
    28    25    21   ar
    29    19    11   ar
    30    29    31    1
    31    29    32    1
    32     1     4    1
    33     9    10    1
    34    27    28    1
@<TRIPOS>MOLECULE
*****
 32 34 0 0 0
SMALL
GASTEIGER

@<TRIPOS>ATOM
      1 N1         65.5830   90.1670   14.6353 N.am    1  <1>        -0.2946
      2 C1         64.1942   89.7691   15.0390 C.2     1  <1>         0.2618
      3 O1         63.1298   90.8145   15.1945 O.2     1  <1>        -0.2686
      4 H1         66.2816   89.4808   14.5332 H       1  <1>         0.1501
      5 C2         63.8697   88.3258   15.2871 C.ar    1  <1>         0.1107
      6 C3         63.5080   87.7182   16.6100 C.ar    1  <1>         0.0231
      7 C4         63.2647   86.2535   16.3964 C.ar    1  <1>         0.0186
      8 C5         63.4762   85.9559   14.9415 C.ar    1  <1>         0.0569
      9 N2         63.8501   87.2366   14.2559 N.ar    1  <1>        -0.3496
     10 H2         64.0479   87.3435   13.2975 H       1  <1>         0.1661
     11 C6         63.3380   84.6132   14.2870 C.ar    1  <1>         0.0201
     12 C7         62.3413   83.6224   14.8113 C.ar    1  <1>         0.0321
     13 C8         62.2032   82.2798   14.1568 C.ar    1  <1>         0.1528
     14 F1         61.2065   81.2889   14.6810 F       1  <1>        -0.2032
     15 C9         63.0617   81.9281   12.9781 C.ar    1  <1>         0.1124
     16 Cl1        62.9235   80.5854   12.3236 Cl      1  <1>        -0.0775
     17 C10        64.0583   82.9189   12.4539 C.ar    1  <1>         0.1528
     18 F2         64.9168   82.5672   11.2752 F       1  <1>        -0.2032
     19 C11        64.1965   84.2615   13.1084 C.ar    1  <1>         0.0321
     20 C12        65.9074   91.6103   14.3872 C.3     1  <1>         0.1341
     21 C13        65.9463   92.1398   12.9843 C.ar    1  <1>         0.1071
     22 N3         67.1140   92.8159   12.3291 N.ar    1  <1>        -0.2428
     23 C14        66.7136   93.1801   10.9302 C.ar    1  <1>         0.0952
     24 C15        65.2984   92.7291   10.7207 C.ar    1  <1>         0.0538
     25 S1         64.8242   92.0861   11.9903 S.2     1  <1>        -0.0689
     26 C16        67.5769   93.8736    9.9183 C.3     1  <1>         0.1834
     27 O2         69.0184   93.4862    9.7708 O.3     1  <1>        -0.3760
     28 H3         69.4998   93.7174   10.5806 H       1  <1>         0.2110
     29 N4         65.1329   92.7875   16.5699 N.3     1  <1>        -0.3194
     30 C17        66.1930   92.5241   15.5420 C.3     1  <1>         0.0917
     31 H4         65.4965   93.4261   17.2773 H       1  <1>         0.1189
     32 H5         64.8622   91.9090   17.0120 H       1  <1>         0.1189
@<TRIPOS>BOND
     1    29    30    1
     2    20    30    1
     3    20     1    1
     4     1     2   am
     5     2     3    2
     6     2     5    1
     7     5     6   ar
     8     6     7   ar
     9     7     8   ar
    10     8    11    1
    11    11    12   ar
    12    12    13   ar
    13    13    14    1
    14    13    15   ar
    15    15    16    1
    16    15    17   ar
    17    17    18    1
    18    17    19   ar
    19     8     9   ar
    20    20    21    1
    21    21    22   ar
    22    22    23   ar
    23    23    26    1
    24    26    27    1
    25    23    24   ar
    26    24    25   ar
    27     9     5   ar
    28    25    21   ar
    29    19    11   ar
    30    29    31    1
    31    29    32    1
    32     1     4    1
    33     9    10    1
    34    27    28    1
@<TRIPOS>MOLECULE
*****
 32 34 0 0 0
SMALL
GASTEIGER

@<TRIPOS>ATOM
      1 N1         64.5610   88.3405   15.4233 N.am    1  <1>        -0.2946
      2 C1         63.9003   89.6213   15.0073 C.2     1  <1>         0.2618
      3 O1         62.4058   89.7427   15.0499 O.2     1  <1>        -0.2686
      4 H1         65.5418   88.2609   15.3953 H       1  <1>         0.1501
      5 C2         64.7341   90.7808   14.5487 C.ar    1  <1>         0.1107
      6 C3         65.4989   91.7211   15.4326 C.ar    1  <1>         0.0231
      7 C4         66.1870   92.7250   14.5558 C.ar    1  <1>         0.0186
      8 C5         65.8475   92.4053   13.1302 C.ar    1  <1>         0.0569
      9 N2         64.9496   91.2037   13.1258 N.ar    1  <1>        -0.3496
     10 H2         64.5686   90.7689   12.3289 H       1  <1>         0.1661
     11 C6         66.3225   93.1554   11.9211 C.ar    1  <1>         0.0201
     12 C7         67.0541   92.4323   10.8295 C.ar    1  <1>         0.0321
     13 C8         67.5291   93.1824    9.6205 C.ar    1  <1>         0.1528
     14 F1         68.2608   92.4593    8.5287 F       1  <1>        -0.2032
     15 C9         67.2725   94.6556    9.5032 C.ar    1  <1>         0.1124
     16 Cl1        67.7475   95.4058    8.2941 Cl      1  <1>        -0.0775
     17 C10        66.5408   95.3787   10.5949 C.ar    1  <1>         0.1528
     18 F2         66.2842   96.8519   10.4776 F       1  <1>        -0.2032
     19 C11        66.0659   94.6286   11.8039 C.ar    1  <1>         0.0321
     20 C12        63.7272   87.1810   15.8819 C.3     1  <1>         0.1341
     21 C13        63.8100   85.8670   15.1632 C.ar    1  <1>         0.1071
     22 N3         62.6821   84.8983   14.9641 N.ar    1  <1>        -0.2428
     23 C14        63.2103   83.7236   14.1953 C.ar    1  <1>         0.0952
     24 C15        64.6646   83.9663   13.9191 C.ar    1  <1>         0.0538
     25 S1         65.0351   85.2910   14.5173 S.2     1  <1>        -0.0689
     26 C16        62.4225   82.5179   13.7761 C.3     1  <1>         0.1834
     27 O2         62.0775   81.4604   14.7825 O.3     1  <1>        -0.3760
     28 H3         62.8898   81.0260   15.0863 H       1  <1>         0.2110
     29 N4         61.7059   86.3461   17.2846 N.3     1  <1>        -0.3194
     30 C17        62.8106   87.3355   17.0592 C.3     1  <1>         0.0917
     31 H4         61.1859   86.6025   18.1238 H       1  <1>         0.1189
     32 H5         62.1031   85.4140   17.4022 H       1  <1>         0.1189
@<TRIPOS>BOND
     1    29    30    1
     2    20    30    1
     3    20     1    1
     4     1     2   am
     5     2     3    2
     6     2     5    1
     7     5     6   ar
     8     6     7   ar
     9     7     8   ar
    10     8    11    1
    11    11    12   ar
    12    12    13   ar
    13    13    14    1
    14    13    15   ar
    15    15    16    1
    16    15    17   ar
    17    17    18    1
    18    17    19   ar
    19     8     9   ar
    20    20    21    1
    21    21    22   ar
    22    22    23   ar
    23    23    26    1
    24    26    27    1
    25    23    24   ar
    26    24    25   ar
    27     9     5   ar
    28    25    21   ar
    29    19    11   ar
    30    29    31    1
    31    29    32    1
    32     1     4    1
    33     9    10    1
    34    27    28    1
@<TRIPOS>MOLECULE
*****
 32 34 0 0 0
SMALL
GASTEIGER

@<TRIPOS>ATOM
      1 N1         64.1685   89.4093   14.0770 N.am    1  <1>        -0.2946
      2 C1         63.3561   89.3777   12.8164 C.2     1  <1>         0.2618
      3 O1         62.8989   90.6598   12.1863 O.2     1  <1>        -0.2686
      4 H1         64.4685   88.5678   14.4905 H       1  <1>         0.1501
      5 C2         63.0008   88.0638   12.1859 C.ar    1  <1>         0.1107
      6 C3         62.3981   87.8729   10.8256 C.ar    1  <1>         0.0231
      7 C4         62.2106   86.4013   10.6040 C.ar    1  <1>         0.0186
      8 C5         62.6975   85.6826   11.8273 C.ar    1  <1>         0.0569
      9 N2         63.1859   86.7101   12.8050 N.ar    1  <1>        -0.3496
     10 H2         63.5618   86.5280   13.6965 H       1  <1>         0.1661
     11 C6         62.6963   84.1972   12.0363 C.ar    1  <1>         0.0201
     12 C7         63.0732   83.2810   10.9101 C.ar    1  <1>         0.0321
     13 C8         63.0720   81.7957   11.1191 C.ar    1  <1>         0.1528
     14 F1         63.4489   80.8794    9.9928 F       1  <1>        -0.2032
     15 C9         62.6938   81.2265   12.4544 C.ar    1  <1>         0.1124
     16 Cl1        62.6926   79.7411   12.6634 Cl      1  <1>        -0.0775
     17 C10        62.3169   82.1427   13.5807 C.ar    1  <1>         0.1528
     18 F2         61.9387   81.5735   14.9160 F       1  <1>        -0.2032
     19 C11        62.3181   83.6280   13.3716 C.ar    1  <1>         0.0321
     20 C12        64.5237   90.7232   14.7075 C.3     1  <1>         0.1341
     21 C13        65.4530   91.6664   14.0026 C.ar    1  <1>         0.1071
     22 N3         65.0588   92.6997   12.9892 N.ar    1  <1>        -0.2428
     23 C14        66.3018   93.4137   12.5477 C.ar    1  <1>         0.0952
     24 C15        67.4643   92.8218   13.2881 C.ar    1  <1>         0.0538
     25 S1         66.9397   91.7419   14.1873 S.2     1  <1>        -0.0689
     26 C16        66.3703   94.5247   11.5421 C.3     1  <1>         0.1834
     27 O2         65.2910   94.6703   10.5107 O.3     1  <1>        -0.3760
     28 H3         65.3113   93.9077    9.9116 H       1  <1>         0.2110
     29 N4         64.3215   92.3985   16.6830 N.3     1  <1>        -0.3194
     30 C17        63.9498   91.0939   16.0428 C.3     1  <1>         0.0917
     31 H4         63.8433   92.4857   17.5797 H       1  <1>         0.1189
     32 H5         64.0439   93.1676   16.0733 H       1  <1>         0.1189
@<TRIPOS>BOND
     1    29    30    1
     2    20    30    1
     3    20     1    1
     4     1     2   am
     5     2     3    2
     6     2     5    1
     7     5     6   ar
     8     6     7   ar
     9     7     8   ar
    10     8    11    1
    11    11    12   ar
    12    12    13   ar
    13    13    14    1
    14    13    15   ar
    15    15    16    1
    16    15    17   ar
    17    17    18    1
    18    17    19   ar
    19     8     9   ar
    20    20    21    1
    21    21    22   ar
    22    22    23   ar
    23    23    26    1
    24    26    27    1
    25    23    24   ar
    26    24    25   ar
    27     9     5   ar
    28    25    21   ar
    29    19    11   ar
    30    29    31    1
    31    29    32    1
    32     1     4    1
    33     9    10    1
    34    27    28    1
@<TRIPOS>MOLECULE
*****
 32 34 0 0 0
SMALL
GASTEIGER

@<TRIPOS>ATOM
      1 N1         64.1012   89.4096   14.2045 N.am    1  <1>        -0.2946
      2 C1         63.4056   89.3926   12.8757 C.2     1  <1>         0.2618
      3 O1         63.0858   90.6824   12.1799 O.2     1  <1>        -0.2686
      4 H1         64.3111   88.5631   14.6611 H       1  <1>         0.1501
      5 C2         63.0297   88.0857   12.2426 C.ar    1  <1>         0.1107
      6 C3         62.4028   87.9086   10.8914 C.ar    1  <1>         0.0231
      7 C4         62.2004   86.4399   10.6632 C.ar    1  <1>         0.0186
      8 C5         62.7021   85.7094   11.8734 C.ar    1  <1>         0.0569
      9 N2         63.2146   86.7265   12.8495 N.ar    1  <1>        -0.3496
     10 H2         63.6040   86.5356   13.7333 H       1  <1>         0.1661
     11 C6         62.6929   84.2226   12.0726 C.ar    1  <1>         0.0201
     12 C7         62.2881   83.6458   13.3967 C.ar    1  <1>         0.0321
     13 C8         62.2789   82.1591   13.5958 C.ar    1  <1>         0.1528
     14 F1         61.8740   81.5823   14.9200 F       1  <1>        -0.2032
     15 C9         62.6746   81.2493   12.4708 C.ar    1  <1>         0.1124
     16 Cl1        62.6654   79.7626   12.6700 Cl      1  <1>        -0.0775
     17 C10        63.0795   81.8261   11.1467 C.ar    1  <1>         0.1528
     18 F2         63.4752   80.9163   10.0217 F       1  <1>        -0.2032
     19 C11        63.0887   83.3128   10.9476 C.ar    1  <1>         0.0321
     20 C12        64.4771   90.7165   14.8376 C.3     1  <1>         0.1341
     21 C13        65.4503   91.6294   14.1523 C.ar    1  <1>         0.1071
     22 N3         65.1121   92.6638   13.1200 N.ar    1  <1>        -0.2428
     23 C14        66.3853   93.3418   12.7088 C.ar    1  <1>         0.0952
     24 C15        67.5104   92.7264   13.4869 C.ar    1  <1>         0.0538
     25 S1         66.9325   91.6681   14.3790 S.2     1  <1>        -0.0689
     26 C16        66.5113   94.4420   11.6970 C.3     1  <1>         0.1834
     27 O2         65.7645   95.7283   11.8909 O.3     1  <1>        -0.3760
     28 H3         64.8109   95.5609   11.8308 H       1  <1>         0.2110
     29 N4         64.2138   92.4408   16.7631 N.3     1  <1>        -0.3194
     30 C17        63.8798   91.1105   16.1560 C.3     1  <1>         0.0917
     31 H4         63.7237   92.5416   17.6519 H       1  <1>         0.1189
     32 H5         63.9250   93.1859   16.1292 H       1  <1>         0.1189
@<TRIPOS>BOND
     1    29    30    1
     2    20    30    1
     3    20     1    1
     4     1     2   am
     5     2     3    2
     6     2     5    1
     7     5     6   ar
     8     6     7   ar
     9     7     8   ar
    10     8    11    1
    11    11    12   ar
    12    12    13   ar
    13    13    14    1
    14    13    15   ar
    15    15    16    1
    16    15    17   ar
    17    17    18    1
    18    17    19   ar
    19     8     9   ar
    20    20    21    1
    21    21    22   ar
    22    22    23   ar
    23    23    26    1
    24    26    27    1
    25    23    24   ar
    26    24    25   ar
    27     9     5   ar
    28    25    21   ar
    29    19    11   ar
    30    29    31    1
    31    29    32    1
    32     1     4    1
    33     9    10    1
    34    27    28    1
@<TRIPOS>MOLECULE
*****
 32 34 0 0 0
SMALL
GASTEIGER

@<TRIPOS>ATOM
      1 N1         62.9542   85.1357   13.8854 N.am    1  <1>        -0.2946
      2 C1         63.6219   85.7514   15.0792 C.2     1  <1>         0.2618
      3 O1         64.1591   84.8762   16.1725 O.2     1  <1>        -0.2686
      4 H1         62.6016   85.7102   13.1678 H       1  <1>         0.1501
      5 C2         63.7524   87.2424   15.1796 C.ar    1  <1>         0.1107
      6 C3         63.2724   88.0949   16.3167 C.ar    1  <1>         0.0231
      7 C4         63.6092   89.5219   16.0005 C.ar    1  <1>         0.0186
      8 C5         64.2973   89.5515   14.6680 C.ar    1  <1>         0.0569
      9 N2         64.3858   88.1426   14.1607 N.ar    1  <1>        -0.3496
     10 H2         64.7889   87.8587   13.3085 H       1  <1>         0.1661
     11 C6         64.8074   90.7750   13.9659 C.ar    1  <1>         0.0201
     12 C7         65.7254   91.7218   14.6806 C.ar    1  <1>         0.0321
     13 C8         66.2355   92.9453   13.9786 C.ar    1  <1>         0.1528
     14 F1         67.1535   93.8922   14.6932 F       1  <1>        -0.2032
     15 C9         65.8275   93.2220   12.5619 C.ar    1  <1>         0.1124
     16 Cl1        66.3376   94.4456   11.8598 Cl      1  <1>        -0.0775
     17 C10        64.9095   92.2752   11.8472 C.ar    1  <1>         0.1528
     18 F2         64.5016   92.5519   10.4305 F       1  <1>        -0.2032
     19 C11        64.3995   91.0517   12.5492 C.ar    1  <1>         0.0321
     20 C12        62.8236   83.6448   13.7850 C.3     1  <1>         0.1341
     21 C13        63.1799   82.9452   12.5069 C.ar    1  <1>         0.1071
     22 N3         62.6089   81.6445   12.0249 N.ar    1  <1>        -0.2428
     23 C14        63.2459   81.3189   10.7065 C.ar    1  <1>         0.0952
     24 C15        64.2104   82.4184   10.3735 C.ar    1  <1>         0.0538
     25 S1         64.1696   83.4235   11.4862 S.2     1  <1>        -0.0689
     26 C16        62.9671   80.1067    9.8681 C.3     1  <1>         0.1834
     27 O2         62.7345   78.7782   10.5246 O.3     1  <1>        -0.3760
     28 H3         63.5489   78.4877   10.9642 H       1  <1>         0.2110
     29 N4         61.9706   81.4086   14.7957 N.3     1  <1>        -0.3194
     30 C17        62.3368   82.8535   14.9627 C.3     1  <1>         0.0917
     31 H4         61.6628   81.0301   15.6915 H       1  <1>         0.1189
     32 H5         62.7838   80.8874   14.4678 H       1  <1>         0.1189
@<TRIPOS>BOND
     1    29    30    1
     2    20    30    1
     3    20     1    1
     4     1     2   am
     5     2     3    2
     6     2     5    1
     7     5     6   ar
     8     6     7   ar
     9     7     8   ar
    10     8    11    1
    11    11    12   ar
    12    12    13   ar
    13    13    14    1
    14    13    15   ar
    15    15    16    1
    16    15    17   ar
    17    17    18    1
    18    17    19   ar
    19     8     9   ar
    20    20    21    1
    21    21    22   ar
    22    22    23   ar
    23    23    26    1
    24    26    27    1
    25    23    24   ar
    26    24    25   ar
    27     9     5   ar
    28    25    21   ar
    29    19    11   ar
    30    29    31    1
    31    29    32    1
    32     1     4    1
    33     9    10    1
    34    27    28    1
@<TRIPOS>MOLECULE
*****
 32 34 0 0 0
SMALL
GASTEIGER

@<TRIPOS>ATOM
      1 N1         64.8630   90.4671   12.7685 N.am    1  <1>        -0.2946
      2 C1         63.5473   90.3048   12.0666 C.2     1  <1>         0.2618
      3 O1         62.7709   91.5150   11.6392 O.2     1  <1>        -0.2686
      4 H1         65.3725   89.6728   13.0491 H       1  <1>         0.1501
      5 C2         63.0080   88.9323   11.7921 C.ar    1  <1>         0.1107
      6 C3         61.9981   88.5756   10.7418 C.ar    1  <1>         0.0231
      7 C4         61.7499   87.0983   10.8202 C.ar    1  <1>         0.0186
      8 C5         62.6063   86.5421   11.9189 C.ar    1  <1>         0.0569
      9 N2         63.3838   87.6755   12.5195 N.ar    1  <1>        -0.3496
     10 H2         64.0278   87.6066   13.2610 H       1  <1>         0.1661
     11 C6         62.6734   85.1046   12.3426 C.ar    1  <1>         0.0201
     12 C7         62.5838   84.7463   13.7963 C.ar    1  <1>         0.0321
     13 C8         62.6509   83.3090   14.2200 C.ar    1  <1>         0.1528
     14 F1         62.5613   82.9506   15.6738 F       1  <1>        -0.2032
     15 C9         62.8076   82.2300   13.1898 C.ar    1  <1>         0.1124
     16 Cl1        62.8747   80.7926   13.6135 Cl      1  <1>        -0.0775
     17 C10        62.8972   82.5883   11.7361 C.ar    1  <1>         0.1528
     18 F2         63.0539   81.5093   10.7059 F       1  <1>        -0.2032
     19 C11        62.8301   84.0256   11.3124 C.ar    1  <1>         0.0321
     20 C12        65.4023   91.8396   13.0431 C.3     1  <1>         0.1341
     21 C13        65.9242   92.6797   11.9154 C.ar    1  <1>         0.1071
     22 N3         65.4537   94.0565   11.5505 N.ar    1  <1>        -0.2428
     23 C14        66.2471   94.5182   10.3642 C.ar    1  <1>         0.0952
     24 C15        67.2079   93.4268    9.9958 C.ar    1  <1>         0.0538
     25 S1         67.0083   92.2905   10.9545 S.2     1  <1>        -0.0689
     26 C16        66.1046   95.8394    9.6683 C.3     1  <1>         0.1834
     27 O2         64.7462   96.4492    9.4876 O.3     1  <1>        -0.3760
     28 H3         64.2193   95.8942    8.8915 H       1  <1>         0.2110
     29 N4         66.1302   93.6571   14.7510 N.3     1  <1>        -0.3194
     30 C17        65.4196   92.3719   14.4454 C.3     1  <1>         0.0917
     31 H4         66.0411   93.8668   15.7452 H       1  <1>         0.1189
     32 H5         65.7157   94.4128   14.2056 H       1  <1>         0.1189
@<TRIPOS>BOND
     1    29    30    1
     2    20    30    1
     3    20     1    1
     4     1     2   am
     5     2     3    2
     6     2     5    1
     7     5     6   ar
     8     6     7   ar
     9     7     8   ar
    10     8    11    1
    11    11    12   ar
    12    12    13   ar
    13    13    14    1
    14    13    15   ar
    15    15    16    1
    16    15    17   ar
    17    17    18    1
    18    17    19   ar
    19     8     9   ar
    20    20    21    1
    21    21    22   ar
    22    22    23   ar
    23    23    26    1
    24    26    27    1
    25    23    24   ar
    26    24    25   ar
    27     9     5   ar
    28    25    21   ar
    29    19    11   ar
    30    29    31    1
    31    29    32    1
    32     1     4    1
    33     9    10    1
    34    27    28    1
@<TRIPOS>MOLECULE
*****
 32 34 0 0 0
SMALL
GASTEIGER

@<TRIPOS>ATOM
      1 N1         63.2069   85.5859   13.1840 N.am    1  <1>        -0.2946
      2 C1         62.4110   86.4752   12.2753 C.2     1  <1>         0.2618
      3 O1         61.2110   85.9327   11.5572 O.2     1  <1>        -0.2686
      4 H1         63.9944   85.9420   13.6553 H       1  <1>         0.1501
      5 C2         62.8151   87.9071   12.0847 C.ar    1  <1>         0.1107
      6 C3         62.3285   88.8240   11.0018 C.ar    1  <1>         0.0231
      7 C4         62.9894   90.1571   11.1914 C.ar    1  <1>         0.0186
      8 C5         63.8845   90.0642   12.3915 C.ar    1  <1>         0.0569
      9 N2         63.7767   88.6737   12.9436 N.ar    1  <1>        -0.3496
     10 H2         64.2535   88.3253   13.7314 H       1  <1>         0.1661
     11 C6         64.7375   91.1681   12.9428 C.ar    1  <1>         0.0201
     12 C7         65.2139   92.2689   12.0421 C.ar    1  <1>         0.0321
     13 C8         66.0669   93.3727   12.5934 C.ar    1  <1>         0.1528
     14 F1         66.5434   94.4736   11.6927 F       1  <1>        -0.2032
     15 C9         66.4436   93.3757   14.0453 C.ar    1  <1>         0.1124
     16 Cl1        67.2966   94.4796   14.5966 Cl      1  <1>        -0.0775
     17 C10        65.9672   92.2749   14.9460 C.ar    1  <1>         0.1528
     18 F2         66.3438   92.2779   16.3979 F       1  <1>        -0.2032
     19 C11        65.1142   91.1711   14.3947 C.ar    1  <1>         0.0321
     20 C12        62.8028   84.1540   13.3746 C.3     1  <1>         0.1341
     21 C13        63.0970   83.1431   12.3061 C.ar    1  <1>         0.1071
     22 N3         62.6727   81.7044   12.3126 N.ar    1  <1>        -0.2428
     23 C14        63.1807   81.0657   11.0541 C.ar    1  <1>         0.0952
     24 C15        63.9190   82.1096   10.2698 C.ar    1  <1>         0.0538
     25 S1         63.8672   83.3935   11.0436 S.2     1  <1>        -0.0689
     26 C16        62.9848   79.6343   10.6507 C.3     1  <1>         0.1834
     27 O2         62.7081   79.2902    9.2172 O.3     1  <1>        -0.3760
     28 H3         61.8457   79.6511    8.9586 H       1  <1>         0.2110
     29 N4         62.5462   82.4965   15.3587 N.3     1  <1>        -0.3194
     30 C17        62.1044   83.7330   14.6336 C.3     1  <1>         0.0917
     31 H4         61.9659   82.3622   16.1867 H       1  <1>         0.1189
     32 H5         63.5215   82.5973   15.6398 H       1  <1>         0.1189
@<TRIPOS>BOND
     1    29    30    1
     2    20    30    1
     3    20     1    1
     4     1     2   am
     5     2     3    2
     6     2     5    1
     7     5     6   ar
     8     6     7   ar
     9     7     8   ar
    10     8    11    1
    11    11    12   ar
    12    12    13   ar
    13    13    14    1
    14    13    15   ar
    15    15    16    1
    16    15    17   ar
    17    17    18    1
    18    17    19   ar
    19     8     9   ar
    20    20    21    1
    21    21    22   ar
    22    22    23   ar
    23    23    26    1
    24    26    27    1
    25    23    24   ar
    26    24    25   ar
    27     9     5   ar
    28    25    21   ar
    29    19    11   ar
    30    29    31    1
    31    29    32    1
    32     1     4    1
    33     9    10    1
    34    27    28    1
@<TRIPOS>MOLECULE
*****
 32 34 0 0 0
SMALL
GASTEIGER

@<TRIPOS>ATOM
      1 N1         64.9264   90.9573   11.8890 N.am    1  <1>        -0.2946
      2 C1         63.6657   90.4097   12.4898 C.2     1  <1>         0.2618
      3 O1         62.9187   91.2045   13.5195 O.2     1  <1>        -0.2686
      4 H1         65.4166   90.4357   11.2132 H       1  <1>         0.1501
      5 C2         63.1521   89.0673   12.0609 C.ar    1  <1>         0.1107
      6 C3         62.2197   88.8048   10.9155 C.ar    1  <1>         0.0231
      7 C4         61.9720   87.3269   10.8488 C.ar    1  <1>         0.0186
      8 C5         62.7512   86.6760   11.9529 C.ar    1  <1>         0.0569
      9 N2         63.4805   87.7516   12.7020 N.ar    1  <1>        -0.3496
     10 H2         64.0711   87.6176   13.4782 H       1  <1>         0.1661
     11 C6         62.7937   85.2073   12.2550 C.ar    1  <1>         0.0201
     12 C7         62.6080   84.7255   13.6633 C.ar    1  <1>         0.0321
     13 C8         62.6505   83.2569   13.9652 C.ar    1  <1>         0.1528
     14 F1         62.4648   82.7750   15.3736 F       1  <1>        -0.2032
     15 C9         62.8786   82.2700   12.8589 C.ar    1  <1>         0.1124
     16 Cl1        62.9211   80.8013   13.1609 Cl      1  <1>        -0.0775
     17 C10        63.0643   82.7517   11.4506 C.ar    1  <1>         0.1528
     18 F2         63.2925   81.7648   10.3442 F       1  <1>        -0.2032
     19 C11        63.0218   84.2204   11.1486 C.ar    1  <1>         0.0321
     20 C12        65.4400   92.2998   12.3179 C.3     1  <1>         0.1341
     21 C13        66.1402   92.4487   13.6361 C.ar    1  <1>         0.1071
     22 N3         67.5576   92.8974   13.8358 N.ar    1  <1>        -0.2428
     23 C14        67.8393   92.9010   15.3091 C.ar    1  <1>         0.0952
     24 C15        66.5961   92.4546   16.0200 C.ar    1  <1>         0.0538
     25 S1         65.5461   92.1751   14.9860 S.2     1  <1>        -0.0689
     26 C16        69.1365   93.2839   15.9577 C.3     1  <1>         0.1834
     27 O2         69.5166   94.7299   16.0787 O.3     1  <1>        -0.3760
     28 H3         69.6615   95.1011   15.1943 H       1  <1>         0.2110
     29 N4         65.9714   94.7747   11.7329 N.3     1  <1>        -0.3194
     30 C17        65.2535   93.4933   11.4287 C.3     1  <1>         0.0917
     31 H4         65.7302   95.4744   11.0309 H       1  <1>         0.1189
     32 H5         66.9782   94.6120   11.7189 H       1  <1>         0.1189
@<TRIPOS>BOND
     1    29    30    1
     2    20    30    1
     3    20     1    1
     4     1     2   am
     5     2     3    2
     6     2     5    1
     7     5     6   ar
     8     6     7   ar
     9     7     8   ar
    10     8    11    1
    11    11    12   ar
    12    12    13   ar
    13    13    14    1
    14    13    15   ar
    15    15    16    1
    16    15    17   ar
    17    17    18    1
    18    17    19   ar
    19     8     9   ar
    20    20    21    1
    21    21    22   ar
    22    22    23   ar
    23    23    26    1
    24    26    27    1
    25    23    24   ar
    26    24    25   ar
    27     9     5   ar
    28    25    21   ar
    29    19    11   ar
    30    29    31    1
    31    29    32    1
    32     1     4    1
    33     9    10    1
    34    27    28    1
