@<TRIPOS>MOLECULE
*****
 21 23 0 0 0
SMALL
GASTEIGER

@<TRIPOS>ATOM
      1 C          63.3189   82.7260   12.1263 C.ar    1  UNL1        0.0428
      2 C          63.1272   81.5103   11.2687 C.ar    1  UNL1        0.0077
      3 C          62.6241   80.2350   11.8773 C.ar    1  UNL1        0.0006
      4 C          62.3128   80.1753   13.3434 C.ar    1  UNL1        0.0013
      5 C          62.5045   81.3909   14.2009 C.ar    1  UNL1        0.0150
      6 C          63.0076   82.6663   13.5924 C.ar    1  UNL1        0.0540
      7 N          63.1993   83.8819   14.4500 N.pl3   1  UNL1       -0.3043
      8 C          62.2165   84.1938   15.5394 C.3     1  UNL1        0.1079
      9 C          62.4082   85.4094   16.3970 C.3     1  UNL1        0.0903
     10 N          63.5828   86.3132   16.1651 N.3     1  UNL1       -0.2946
     11 C          64.5656   86.0013   15.0757 C.3     1  UNL1        0.0903
     12 C          64.3738   84.7856   14.2181 C.3     1  UNL1        0.1079
     13 H          64.1098   86.3410   17.0380 H       1  UNL1        0.1233
     14 S          63.8220   84.0014   11.5177 S.3     1  UNL1       -0.0857
     15 CL         60.1884   87.3297    8.0944 Cl      1  UNL1       -0.0822
     16 C          61.0968   86.4976    8.9502 C.ar    1  UNL1        0.0577
     17 C          62.1620   85.6544    8.3144 C.ar    1  UNL1        0.0119
     18 C          63.0704   84.8223    9.1702 C.ar    1  UNL1        0.0073
     19 C          62.9136   84.8334   10.6619 C.ar    1  UNL1        0.0296
     20 C          61.8484   85.6766   11.2978 C.ar    1  UNL1        0.0073
     21 C          60.9400   86.5087   10.4419 C.ar    1  UNL1        0.0119
@<TRIPOS>BOND
     1    15    16    1
     2    16    17   ar
     3    17    18   ar
     4    18    19   ar
     5    19    14    1
     6    14     1    1
     7     1     2   ar
     8     2     3   ar
     9     3     4   ar
    10     4     5   ar
    11     5     6   ar
    12     6     7    1
    13     7     8    1
    14     8     9    1
    15     9    10    1
    16    10    11    1
    17    11    12    1
    18    19    20   ar
    19    20    21   ar
    20    21    16   ar
    21     6     1   ar
    22    12     7    1
    23    10    13    1
@<TRIPOS>MOLECULE
*****
 21 23 0 0 0
SMALL
GASTEIGER

@<TRIPOS>ATOM
      1 C          62.8077   85.0774   11.2316 C.ar    1  UNL1        0.0428
      2 C          62.9860   84.5946    9.8226 C.ar    1  UNL1        0.0077
      3 C          63.8877   83.4305    9.5371 C.ar    1  UNL1        0.0006
      4 C          64.6112   82.7490   10.6606 C.ar    1  UNL1        0.0013
      5 C          64.4330   83.2317   12.0695 C.ar    1  UNL1        0.0150
      6 C          63.5312   84.3959   12.3551 C.ar    1  UNL1        0.0540
      7 N          63.3530   84.8786   13.7640 N.pl3   1  UNL1       -0.3043
      8 C          62.3585   84.2096   14.6659 C.3     1  UNL1        0.1079
      9 C          62.1802   84.6923   16.0748 C.3     1  UNL1        0.0903
     10 N          62.9965   85.8441   16.5820 N.3     1  UNL1       -0.2946
     11 C          63.9910   86.5131   15.6801 C.3     1  UNL1        0.0903
     12 C          64.1692   86.0304   14.2711 C.3     1  UNL1        0.1079
     13 H          63.5155   85.5034   17.3913 H       1  UNL1        0.1233
     14 S          61.9059   86.2415   11.5171 S.3     1  UNL1       -0.0857
     15 CL         59.3341   89.2247    6.9910 Cl      1  UNL1       -0.0822
     16 C          59.9770   88.4789    8.1225 C.ar    1  UNL1        0.0577
     17 C          60.7304   89.2273    9.1819 C.ar    1  UNL1        0.0119
     18 C          61.3733   88.4815   10.3135 C.ar    1  UNL1        0.0073
     19 C          61.2630   86.9873   10.3856 C.ar    1  UNL1        0.0296
     20 C          60.5096   86.2390    9.3262 C.ar    1  UNL1        0.0073
     21 C          59.8667   86.9848    8.1946 C.ar    1  UNL1        0.0119
@<TRIPOS>BOND
     1    15    16    1
     2    16    17   ar
     3    17    18   ar
     4    18    19   ar
     5    19    14    1
     6    14     1    1
     7     1     2   ar
     8     2     3   ar
     9     3     4   ar
    10     4     5   ar
    11     5     6   ar
    12     6     7    1
    13     7     8    1
    14     8     9    1
    15     9    10    1
    16    10    11    1
    17    11    12    1
    18    19    20   ar
    19    20    21   ar
    20    21    16   ar
    21     6     1   ar
    22    12     7    1
    23    10    13    1
@<TRIPOS>MOLECULE
*****
 21 23 0 0 0
SMALL
GASTEIGER

@<TRIPOS>ATOM
      1 C          63.1413   90.5801   11.9497 C.ar    1  UNL1        0.0428
      2 C          63.4028   91.4698   10.7706 C.ar    1  UNL1        0.0077
      3 C          64.6600   92.2856   10.7108 C.ar    1  UNL1        0.0006
      4 C          65.6559   92.2118   11.8301 C.ar    1  UNL1        0.0013
      5 C          65.3946   91.3222   13.0091 C.ar    1  UNL1        0.0150
      6 C          64.1372   90.5063   13.0690 C.ar    1  UNL1        0.0540
      7 N          63.8759   89.6167   14.2480 N.pl3   1  UNL1       -0.3043
      8 C          63.2588   90.1827   15.4925 C.3     1  UNL1        0.1079
      9 C          62.9974   89.2931   16.6715 C.3     1  UNL1        0.0903
     10 N          63.3531   87.8373   16.6061 N.3     1  UNL1       -0.2946
     11 C          63.9702   87.2712   15.3617 C.3     1  UNL1        0.0903
     12 C          64.2316   88.1610   14.1826 C.3     1  UNL1        0.1079
     13 H          62.4920   87.3161   16.7712 H       1  UNL1        0.1233
     14 S          61.8841   89.7642   12.0095 S.3     1  UNL1       -0.0857
     15 CL         60.6135   85.8843    7.6127 Cl      1  UNL1       -0.0822
     16 C          60.9312   86.8543    8.7119 C.ar    1  UNL1        0.0577
     17 C          60.2594   88.1950    8.7464 C.ar    1  UNL1        0.0119
     18 C          60.5770   89.1649    9.8456 C.ar    1  UNL1        0.0073
     19 C          61.5664   88.7942   10.9103 C.ar    1  UNL1        0.0296
     20 C          62.2382   87.4536   10.8757 C.ar    1  UNL1        0.0073
     21 C          61.9206   86.4836    9.7765 C.ar    1  UNL1        0.0119
@<TRIPOS>BOND
     1    15    16    1
     2    16    17   ar
     3    17    18   ar
     4    18    19   ar
     5    19    14    1
     6    14     1    1
     7     1     2   ar
     8     2     3   ar
     9     3     4   ar
    10     4     5   ar
    11     5     6   ar
    12     6     7    1
    13     7     8    1
    14     8     9    1
    15     9    10    1
    16    10    11    1
    17    11    12    1
    18    19    20   ar
    19    20    21   ar
    20    21    16   ar
    21     6     1   ar
    22    12     7    1
    23    10    13    1
@<TRIPOS>MOLECULE
*****
 21 23 0 0 0
SMALL
GASTEIGER

@<TRIPOS>ATOM
      1 C          62.7413   84.9631   11.2925 C.ar    1  UNL1        0.0428
      2 C          62.9225   84.4872    9.8815 C.ar    1  UNL1        0.0077
      3 C          63.8825   83.3741    9.5828 C.ar    1  UNL1        0.0006
      4 C          64.6613   82.7367   10.6951 C.ar    1  UNL1        0.0013
      5 C          64.4801   83.2125   12.1061 C.ar    1  UNL1        0.0150
      6 C          63.5201   84.3257   12.4048 C.ar    1  UNL1        0.0540
      7 N          63.3389   84.8015   13.8157 N.pl3   1  UNL1       -0.3043
      8 C          62.2926   84.1758   14.6896 C.3     1  UNL1        0.1079
      9 C          62.1114   84.6516   16.1006 C.3     1  UNL1        0.0903
     10 N          62.9765   85.7531   16.6376 N.3     1  UNL1       -0.2946
     11 C          64.0228   86.3788   15.7636 C.3     1  UNL1        0.0903
     12 C          64.2040   85.9029   14.3526 C.3     1  UNL1        0.1079
     13 H          63.4604   85.3766   17.4528 H       1  UNL1        0.1233
     14 S          61.7813   86.0762   11.5911 S.3     1  UNL1       -0.0857
     15 CL         63.1565   91.7139   10.0662 Cl      1  UNL1       -0.0822
     16 C          62.8127   90.3045   10.4474 C.ar    1  UNL1        0.0577
     17 C          63.3034   89.7380   11.7467 C.ar    1  UNL1        0.0119
     18 C          62.9596   88.3286   12.1279 C.ar    1  UNL1        0.0073
     19 C          62.1251   87.4857   11.2099 C.ar    1  UNL1        0.0296
     20 C          61.6344   88.0521    9.9105 C.ar    1  UNL1        0.0073
     21 C          61.9782   89.4615    9.5293 C.ar    1  UNL1        0.0119
@<TRIPOS>BOND
     1    15    16    1
     2    16    17   ar
     3    17    18   ar
     4    18    19   ar
     5    19    14    1
     6    14     1    1
     7     1     2   ar
     8     2     3   ar
     9     3     4   ar
    10     4     5   ar
    11     5     6   ar
    12     6     7    1
    13     7     8    1
    14     8     9    1
    15     9    10    1
    16    10    11    1
    17    11    12    1
    18    19    20   ar
    19    20    21   ar
    20    21    16   ar
    21     6     1   ar
    22    12     7    1
    23    10    13    1
@<TRIPOS>MOLECULE
*****
 21 23 0 0 0
SMALL
GASTEIGER

@<TRIPOS>ATOM
      1 C          64.0248   91.1418   13.4103 C.ar    1  UNL1        0.0428
      2 C          62.9363   90.7338   12.4622 C.ar    1  UNL1        0.0077
      3 C          63.0474   91.0679   11.0042 C.ar    1  UNL1        0.0006
      4 C          64.2470   91.8101   10.4941 C.ar    1  UNL1        0.0013
      5 C          65.3354   92.2181   11.4420 C.ar    1  UNL1        0.0150
      6 C          65.2244   91.8839   12.9002 C.ar    1  UNL1        0.0540
      7 N          66.3129   92.2919   13.8481 N.pl3   1  UNL1       -0.3043
      8 C          67.1777   91.2485   14.4910 C.3     1  UNL1        0.1079
      9 C          68.2661   91.6565   15.4390 C.3     1  UNL1        0.0903
     10 N          68.4899   93.1080   15.7441 N.3     1  UNL1       -0.2946
     11 C          67.6251   94.1515   15.1012 C.3     1  UNL1        0.0903
     12 C          66.5365   93.7434   14.1532 C.3     1  UNL1        0.1079
     13 H          69.4521   93.3195   15.4800 H       1  UNL1        0.1233
     14 S          63.9137   90.8076   14.8683 S.3     1  UNL1       -0.0857
     15 CL         63.4878   85.0817   16.6099 Cl      1  UNL1       -0.0822
     16 C          63.5943   86.5132   16.1745 C.ar    1  UNL1        0.0577
     17 C          64.2979   86.8577   14.8954 C.ar    1  UNL1        0.0119
     18 C          64.4044   88.2892   14.4600 C.ar    1  UNL1        0.0073
     19 C          63.8072   89.3761   15.3037 C.ar    1  UNL1        0.0296
     20 C          63.1036   89.0316   16.5828 C.ar    1  UNL1        0.0073
     21 C          62.9971   87.6001   17.0182 C.ar    1  UNL1        0.0119
@<TRIPOS>BOND
     1    15    16    1
     2    16    17   ar
     3    17    18   ar
     4    18    19   ar
     5    19    14    1
     6    14     1    1
     7     1     2   ar
     8     2     3   ar
     9     3     4   ar
    10     4     5   ar
    11     5     6   ar
    12     6     7    1
    13     7     8    1
    14     8     9    1
    15     9    10    1
    16    10    11    1
    17    11    12    1
    18    19    20   ar
    19    20    21   ar
    20    21    16   ar
    21     6     1   ar
    22    12     7    1
    23    10    13    1
@<TRIPOS>MOLECULE
*****
 21 23 0 0 0
SMALL
GASTEIGER

@<TRIPOS>ATOM
      1 C          63.0020   86.2321   12.4806 C.ar    1  UNL1        0.0428
      2 C          63.1806   87.7193   12.4004 C.ar    1  UNL1        0.0077
      3 C          63.9140   88.4464   13.4882 C.ar    1  UNL1        0.0006
      4 C          64.4690   87.6863   14.6563 C.ar    1  UNL1        0.0013
      5 C          64.2904   86.1991   14.7365 C.ar    1  UNL1        0.0150
      6 C          63.5570   85.4720   13.6486 C.ar    1  UNL1        0.0540
      7 N          63.3784   83.9849   13.7288 N.pl3   1  UNL1       -0.3043
      8 C          62.2304   83.4079   14.5029 C.3     1  UNL1        0.1079
      9 C          62.0519   81.9208   14.5832 C.3     1  UNL1        0.0903
     10 N          63.0214   81.0105   13.8892 N.3     1  UNL1       -0.2946
     11 C          64.1694   81.5874   13.1151 C.3     1  UNL1        0.0903
     12 C          64.3479   83.0746   13.0349 C.3     1  UNL1        0.1079
     13 H          62.4791   80.4463   13.2350 H       1  UNL1        0.1233
     14 S          62.2686   85.5051   11.3928 S.3     1  UNL1       -0.0857
     15 CL         59.1396   88.5878    7.3054 Cl      1  UNL1       -0.0822
     16 C          59.9218   87.8171    8.3272 C.ar    1  UNL1        0.0577
     17 C          60.7764   86.6602    7.9015 C.ar    1  UNL1        0.0119
     18 C          61.5586   85.8895    8.9233 C.ar    1  UNL1        0.0073
     19 C          61.4863   86.2757   10.3709 C.ar    1  UNL1        0.0296
     20 C          60.6318   87.4326   10.7967 C.ar    1  UNL1        0.0073
     21 C          59.8495   88.2033    9.7748 C.ar    1  UNL1        0.0119
@<TRIPOS>BOND
     1    15    16    1
     2    16    17   ar
     3    17    18   ar
     4    18    19   ar
     5    19    14    1
     6    14     1    1
     7     1     2   ar
     8     2     3   ar
     9     3     4   ar
    10     4     5   ar
    11     5     6   ar
    12     6     7    1
    13     7     8    1
    14     8     9    1
    15     9    10    1
    16    10    11    1
    17    11    12    1
    18    19    20   ar
    19    20    21   ar
    20    21    16   ar
    21     6     1   ar
    22    12     7    1
    23    10    13    1
@<TRIPOS>MOLECULE
*****
 21 23 0 0 0
SMALL
GASTEIGER

@<TRIPOS>ATOM
      1 C          61.2202   87.9897   10.1126 C.ar    1  UNL1        0.0428
      2 C          60.3885   89.0595    9.4691 C.ar    1  UNL1        0.0077
      3 C          59.6467   88.7700    8.1980 C.ar    1  UNL1        0.0006
      4 C          59.7365   87.4106    7.5702 C.ar    1  UNL1        0.0013
      5 C          60.5681   86.3408    8.2136 C.ar    1  UNL1        0.0150
      6 C          61.3099   86.6303    9.4848 C.ar    1  UNL1        0.0540
      7 N          62.1415   85.5605   10.1281 N.pl3   1  UNL1       -0.3043
      8 C          63.1067   84.7627    9.3024 C.3     1  UNL1        0.1079
      9 C          63.9383   83.6929    9.9458 C.3     1  UNL1        0.0903
     10 N          63.8047   83.4209   11.4149 N.3     1  UNL1       -0.2946
     11 C          62.8394   84.2187   12.2406 C.3     1  UNL1        0.0903
     12 C          62.0078   85.2886   11.5972 C.3     1  UNL1        0.1079
     13 H          64.7281   83.5598   11.8253 H       1  UNL1        0.1233
     14 S          61.9620   88.2792   11.3837 S.3     1  UNL1       -0.0857
     15 CL         65.4243   93.1625   11.7910 Cl      1  UNL1       -0.0822
     16 C          64.5587   91.9417   11.6892 C.ar    1  UNL1        0.0577
     17 C          63.8681   91.6175   10.3977 C.ar    1  UNL1        0.0119
     18 C          63.0025   90.3967   10.2959 C.ar    1  UNL1        0.0073
     19 C          62.8275   89.5000   11.4855 C.ar    1  UNL1        0.0296
     20 C          63.5181   89.8242   12.7770 C.ar    1  UNL1        0.0073
     21 C          64.3837   91.0450   12.8788 C.ar    1  UNL1        0.0119
@<TRIPOS>BOND
     1    15    16    1
     2    16    17   ar
     3    17    18   ar
     4    18    19   ar
     5    19    14    1
     6    14     1    1
     7     1     2   ar
     8     2     3   ar
     9     3     4   ar
    10     4     5   ar
    11     5     6   ar
    12     6     7    1
    13     7     8    1
    14     8     9    1
    15     9    10    1
    16    10    11    1
    17    11    12    1
    18    19    20   ar
    19    20    21   ar
    20    21    16   ar
    21     6     1   ar
    22    12     7    1
    23    10    13    1
@<TRIPOS>MOLECULE
*****
 21 23 0 0 0
SMALL
GASTEIGER

@<TRIPOS>ATOM
      1 C          66.5775   92.1271   13.4747 C.ar    1  UNL1        0.0428
      2 C          67.5016   92.8318   14.4231 C.ar    1  UNL1        0.0077
      3 C          67.1310   92.9666   15.8703 C.ar    1  UNL1        0.0006
      4 C          65.8362   92.3966   16.3692 C.ar    1  UNL1        0.0013
      5 C          64.9121   91.6919   15.4208 C.ar    1  UNL1        0.0150
      6 C          65.2828   91.5571   13.9735 C.ar    1  UNL1        0.0540
      7 N          64.3587   90.8524   13.0252 N.pl3   1  UNL1       -0.3043
      8 C          64.0080   89.4116   13.2513 C.3     1  UNL1        0.1079
      9 C          63.0839   88.7069   12.3030 C.3     1  UNL1        0.0903
     10 N          62.5104   89.4430   11.1285 N.3     1  UNL1       -0.2946
     11 C          62.8611   90.8838   10.9024 C.3     1  UNL1        0.0903
     12 C          63.7852   91.5885   11.8508 C.3     1  UNL1        0.1079
     13 H          61.4955   89.3978   11.2196 H       1  UNL1        0.1233
     14 S          66.9481   91.9923   12.0275 S.3     1  UNL1       -0.0857
     15 CL         67.0840   96.8446    8.5010 Cl      1  UNL1       -0.0822
     16 C          67.0501   95.6316    9.3826 C.ar    1  UNL1        0.0577
     17 C          66.3420   95.6843   10.7039 C.ar    1  UNL1        0.0119
     18 C          66.3080   94.4712   11.5855 C.ar    1  UNL1        0.0073
     19 C          66.9821   93.2054   11.1459 C.ar    1  UNL1        0.0296
     20 C          67.6901   93.1527    9.8246 C.ar    1  UNL1        0.0073
     21 C          67.7241   94.3658    8.9430 C.ar    1  UNL1        0.0119
@<TRIPOS>BOND
     1    15    16    1
     2    16    17   ar
     3    17    18   ar
     4    18    19   ar
     5    19    14    1
     6    14     1    1
     7     1     2   ar
     8     2     3   ar
     9     3     4   ar
    10     4     5   ar
    11     5     6   ar
    12     6     7    1
    13     7     8    1
    14     8     9    1
    15     9    10    1
    16    10    11    1
    17    11    12    1
    18    19    20   ar
    19    20    21   ar
    20    21    16   ar
    21     6     1   ar
    22    12     7    1
    23    10    13    1
@<TRIPOS>MOLECULE
*****
 21 23 0 0 0
SMALL
GASTEIGER

@<TRIPOS>ATOM
      1 C          61.7342   87.1830   10.4136 C.ar    1  UNL1        0.0428
      2 C          60.9194   86.2283    9.5920 C.ar    1  UNL1        0.0077
      3 C          59.9507   86.7527    8.5739 C.ar    1  UNL1        0.0006
      4 C          59.7968   88.2318    8.3773 C.ar    1  UNL1        0.0013
      5 C          60.6115   89.1864    9.1988 C.ar    1  UNL1        0.0150
      6 C          61.5802   88.6620   10.2169 C.ar    1  UNL1        0.0540
      7 N          62.3949   89.6167   11.0384 N.pl3   1  UNL1       -0.3043
      8 C          62.3681   89.5296   12.5357 C.3     1  UNL1        0.1079
      9 C          63.1828   90.4842   13.3572 C.3     1  UNL1        0.0903
     10 N          64.0243   91.5260   12.6814 N.3     1  UNL1       -0.2946
     11 C          64.0512   91.6131   11.1842 C.3     1  UNL1        0.0903
     12 C          63.2364   90.6584   10.3627 C.3     1  UNL1        0.1079
     13 H          64.9857   91.3700   12.9846 H       1  UNL1        0.1233
     14 S          62.7028   86.6585   11.4317 S.3     1  UNL1       -0.0857
     15 CL         63.0710   80.7592   12.4626 Cl      1  UNL1       -0.0822
     16 C          62.9789   82.2341   12.2049 C.ar    1  UNL1        0.0577
     17 C          62.5234   83.1588   13.2944 C.ar    1  UNL1        0.0119
     18 C          62.4314   84.6337   13.0367 C.ar    1  UNL1        0.0073
     19 C          62.7949   85.1837   11.6894 C.ar    1  UNL1        0.0296
     20 C          63.2504   84.2589   10.5998 C.ar    1  UNL1        0.0073
     21 C          63.3425   82.7841   10.8576 C.ar    1  UNL1        0.0119
@<TRIPOS>BOND
     1    15    16    1
     2    16    17   ar
     3    17    18   ar
     4    18    19   ar
     5    19    14    1
     6    14     1    1
     7     1     2   ar
     8     2     3   ar
     9     3     4   ar
    10     4     5   ar
    11     5     6   ar
    12     6     7    1
    13     7     8    1
    14     8     9    1
    15     9    10    1
    16    10    11    1
    17    11    12    1
    18    19    20   ar
    19    20    21   ar
    20    21    16   ar
    21     6     1   ar
    22    12     7    1
    23    10    13    1
