@<TRIPOS>MOLECULE
*****
 47 53 0 0 0
SMALL
GASTEIGER

@<TRIPOS>ATOM
      1 C          59.5304   88.6704    7.6172 C.3     1  UNL1        0.1543
      2 O          59.5697   88.6698   10.6170 O.2     1  UNL1       -0.2526
      3 C          60.6717   89.3416    9.8526 C.2     1  UNL1        0.3043
      4 N          60.6521   89.3419    8.3528 N.am    1  UNL1       -0.2822
      5 N          61.7933   90.0130   10.5882 N.am    1  UNL1       -0.2641
      6 C          61.8129   90.0127   12.0880 C.3     1  UNL1        0.0966
      7 C          62.9347   90.6842   12.8236 C.3     1  UNL1        0.0415
      8 C          64.0367   91.3559   12.0592 C.3     1  UNL1        0.0806
      9 C          64.0171   91.3562   10.5594 C.3     1  UNL1        0.0415
     10 C          62.8955   90.6848    9.8238 C.3     1  UNL1        0.0966
     11 H          61.3754   89.7828    7.8511 H       1  UNL1        0.1514
     12 N          65.1583   92.0273   12.7948 N.am    1  UNL1       -0.2613
     13 C          65.7339   91.3926   14.0260 C.3     1  UNL1        0.1228
     14 C          66.8556   92.0641   14.7615 C.ar    1  UNL1        0.0112
     15 C          67.4311   91.4294   15.9927 C.ar    1  UNL1       -0.0014
     16 C          68.5528   92.1008   16.7283 C.ar    1  UNL1       -0.0002
     17 C          69.0989   93.4071   16.2326 C.ar    1  UNL1        0.0013
     18 C          68.5234   94.0418   15.0014 C.ar    1  UNL1        0.0144
     19 C          67.4017   93.3703   14.2659 C.ar    1  UNL1        0.0492
     20 N          66.8261   94.0050   13.0346 N.am    1  UNL1       -0.2684
     21 C          65.7045   93.3335   12.2991 C.2     1  UNL1        0.3079
     22 O          65.1289   93.9683   11.0679 O.2     1  UNL1       -0.2522
     23 H          67.1846   94.8623   12.7093 H       1  UNL1        0.1564
     24 C          58.6163   89.4782    6.7444 C.2     1  UNL1        0.2439
     25 O          57.1296   89.3683    6.9108 O.2     1  UNL1       -0.2731
     26 N          59.1888   90.3958    5.7051 N.am    1  UNL1       -0.2781
     27 C          60.6755   90.5056    5.5386 C.3     1  UNL1        0.0948
     28 C          61.2481   91.4233    4.4993 C.3     1  UNL1        0.0375
     29 C          60.3339   92.2310    3.6264 C.3     1  UNL1        0.0609
     30 C          58.8472   92.1212    3.7929 C.3     1  UNL1        0.0375
     31 C          58.2747   91.2036    4.8322 C.3     1  UNL1        0.0948
     32 N          60.9065   93.1486    2.5871 N.3     1  UNL1       -0.2738
     33 C          60.1522   94.3777    2.1744 C.3     1  UNL1        0.0720
     34 C          60.7247   95.2954    1.1351 C.3     1  UNL1        0.0174
     35 C          62.0515   94.9839    0.5085 C.3     1  UNL1        0.0029
     36 C          62.8058   93.7548    0.9213 C.3     1  UNL1        0.0174
     37 C          62.2332   92.8372    1.9606 C.3     1  UNL1        0.0720
     38 C          59.3229   87.1912    7.7545 C.3     1  UNL1        0.0559
     39 C          60.5039   86.2666    7.7720 C.ar    1  UNL1       -0.0131
     40 C          61.1213   85.6023    6.5771 C.ar    1  UNL1        0.0312
     41 S          62.2738   84.7690    7.0540 S.2     1  UNL1       -0.0868
     42 C          62.3687   84.9184    8.5436 C.ar    1  UNL1        0.0292
     43 C          63.3098   84.3311    9.5533 C.ar    1  UNL1        0.0065
     44 C          63.1571   84.6693   11.0066 C.ar    1  UNL1        0.0005
     45 C          62.0632   85.5949   11.4503 C.ar    1  UNL1        0.0000
     46 C          61.1221   86.1821   10.4407 C.ar    1  UNL1        0.0002
     47 C          61.2748   85.8439    8.9873 C.ar    1  UNL1        0.0026
@<TRIPOS>BOND
     1     2     3    2
     2     3     4   am
     3     4     1    1
     4     1    38    1
     5    38    39    1
     6    39    40   ar
     7    40    41   ar
     8    41    42   ar
     9    42    43   ar
    10    43    44   ar
    11    44    45   ar
    12    45    46   ar
    13    46    47   ar
    14     1    24    1
    15    24    25    2
    16    24    26   am
    17    26    27    1
    18    27    28    1
    19    28    29    1
    20    29    32    1
    21    32    33    1
    22    33    34    1
    23    34    35    1
    24    35    36    1
    25    36    37    1
    26    29    30    1
    27    30    31    1
    28     3     5   am
    29     5     6    1
    30     6     7    1
    31     7     8    1
    32     8    12    1
    33    12    13    1
    34    13    14    1
    35    14    15   ar
    36    15    16   ar
    37    16    17   ar
    38    17    18   ar
    39    18    19   ar
    40    19    20    1
    41    20    21   am
    42    21    22    2
    43     8     9    1
    44     9    10    1
    45    47    39   ar
    46    31    26    1
    47    10     5    1
    48    47    42   ar
    49    37    32    1
    50    21    12   am
    51    19    14   ar
    52     4    11    1
    53    20    23    1
@<TRIPOS>MOLECULE
*****
 47 53 0 0 0
SMALL
GASTEIGER

@<TRIPOS>ATOM
      1 C          60.0025   89.3789    7.7259 C.3     1  UNL1        0.1543
      2 O          58.3520   91.0750    5.8821 O.2     1  UNL1       -0.2526
      3 C          59.8150   90.8807    5.6141 C.2     1  UNL1        0.3043
      4 N          60.6403   90.0327    6.5360 N.am    1  UNL1       -0.2822
      5 N          60.4528   91.5344    4.4242 N.am    1  UNL1       -0.2641
      6 C          59.6276   92.3824    3.5023 C.3     1  UNL1        0.0966
      7 C          60.2654   93.0361    2.3124 C.3     1  UNL1        0.0415
      8 C          61.7284   92.8418    2.0444 C.3     1  UNL1        0.0806
      9 C          62.5536   91.9938    2.9663 C.3     1  UNL1        0.0415
     10 C          61.9159   91.3401    4.1562 C.3     1  UNL1        0.0966
     11 H          61.6005   89.9052    6.3601 H       1  UNL1        0.1514
     12 N          62.3662   93.4956    0.8545 N.am    1  UNL1       -0.2613
     13 C          63.4997   94.4591    1.0460 C.3     1  UNL1        0.1228
     14 C          64.1374   95.1129   -0.1440 C.ar    1  UNL1        0.0112
     15 C          65.2710   96.0764    0.0475 C.ar    1  UNL1       -0.0014
     16 C          65.9087   96.7302   -1.1424 C.ar    1  UNL1       -0.0002
     17 C          65.4130   96.4203   -2.5238 C.ar    1  UNL1        0.0013
     18 C          64.2794   95.4567   -2.7153 C.ar    1  UNL1        0.0144
     19 C          63.6417   94.8030   -1.5253 C.ar    1  UNL1        0.0492
     20 N          62.5082   93.8394   -1.7168 N.am    1  UNL1       -0.2684
     21 C          61.8704   93.1857   -0.5269 C.2     1  UNL1        0.3079
     22 O          60.7369   92.2222   -0.7184 O.2     1  UNL1       -0.2522
     23 H          62.1828   93.6361   -2.6234 H       1  UNL1        0.1564
     24 C          59.8694   87.8858    7.7797 C.2     1  UNL1        0.2439
     25 O          58.9051   87.1855    6.8687 O.2     1  UNL1       -0.2731
     26 N          60.7005   87.0931    8.7444 N.am    1  UNL1       -0.2781
     27 C          61.6647   87.7934    9.6553 C.3     1  UNL1        0.0948
     28 C          62.4959   87.0006   10.6201 C.3     1  UNL1        0.0375
     29 C          62.3628   85.5075   10.6739 C.3     1  UNL1        0.0609
     30 C          61.3985   84.8072    9.7629 C.3     1  UNL1        0.0375
     31 C          60.5674   85.5999    8.7982 C.3     1  UNL1        0.0948
     32 N          63.1939   84.7147   11.6386 N.3     1  UNL1       -0.2738
     33 C          63.4344   85.2348   13.0249 C.3     1  UNL1        0.0720
     34 C          64.2655   84.4420   13.9897 C.3     1  UNL1        0.0174
     35 C          64.8562   83.1292   13.5681 C.3     1  UNL1        0.0029
     36 C          64.6157   82.6092   12.1818 C.3     1  UNL1        0.0174
     37 C          63.7846   83.4019   11.2171 C.3     1  UNL1        0.0720
     38 C          59.4978   90.2184    8.8620 C.3     1  UNL1        0.0559
     39 C          60.1186   90.0917   10.2216 C.ar    1  UNL1       -0.0131
     40 C          59.4712   89.4911   11.4341 C.ar    1  UNL1        0.0312
     41 S          60.4483   89.5716   12.5693 S.2     1  UNL1       -0.0868
     42 C          61.6997   90.2220   12.0583 C.ar    1  UNL1        0.0292
     43 C          62.9986   90.5631   12.7269 C.ar    1  UNL1        0.0065
     44 C          64.0935   91.2256   11.9445 C.ar    1  UNL1        0.0005
     45 C          63.8897   91.5470   10.4935 C.ar    1  UNL1        0.0000
     46 C          62.5910   91.2060    9.8251 C.ar    1  UNL1        0.0002
     47 C          61.4960   90.5434   10.6074 C.ar    1  UNL1        0.0026
@<TRIPOS>BOND
     1     2     3    2
     2     3     4   am
     3     4     1    1
     4     1    38    1
     5    38    39    1
     6    39    40   ar
     7    40    41   ar
     8    41    42   ar
     9    42    43   ar
    10    43    44   ar
    11    44    45   ar
    12    45    46   ar
    13    46    47   ar
    14     1    24    1
    15    24    25    2
    16    24    26   am
    17    26    27    1
    18    27    28    1
    19    28    29    1
    20    29    32    1
    21    32    33    1
    22    33    34    1
    23    34    35    1
    24    35    36    1
    25    36    37    1
    26    29    30    1
    27    30    31    1
    28     3     5   am
    29     5     6    1
    30     6     7    1
    31     7     8    1
    32     8    12    1
    33    12    13    1
    34    13    14    1
    35    14    15   ar
    36    15    16   ar
    37    16    17   ar
    38    17    18   ar
    39    18    19   ar
    40    19    20    1
    41    20    21   am
    42    21    22    2
    43     8     9    1
    44     9    10    1
    45    47    39   ar
    46    31    26    1
    47    10     5    1
    48    47    42   ar
    49    37    32    1
    50    21    12   am
    51    19    14   ar
    52     4    11    1
    53    20    23    1
