@<TRIPOS>MOLECULE
*****
 35 38 0 0 0
SMALL
GASTEIGER

@<TRIPOS>ATOM
      1 C          61.5304   86.7657    9.6355 C.ar    1  UNL1        0.1522
      2 C          60.5526   86.5265    8.5235 C.ar    1  UNL1        0.0582
      3 C          59.8507   87.6854    7.8799 C.ar    1  UNL1        0.1049
      4 N          60.1266   89.0834    8.3482 N.ar    1  UNL1       -0.2119
      5 C          61.1044   89.3226    9.4602 C.ar    1  UNL1        0.2220
      6 N          61.8064   88.1638   10.1039 N.ar    1  UNL1       -0.1958
      7 C          64.2840   82.3121   10.3173 C.3     1  UNL1        0.0324
      8 C          63.4981   83.5597   10.5926 C.ar    1  UNL1       -0.0055
      9 C          62.9451   84.4988    9.5619 C.ar    1  UNL1        0.0769
     10 N          62.2324   85.6069   10.2793 N.ar    1  UNL1       -0.2894
     11 C          62.3450   85.3525   11.7532 C.ar    1  UNL1        0.0782
     12 C          63.1272   84.0874   11.9469 C.ar    1  UNL1        0.0089
     13 C          63.4771   83.4600   13.2637 C.3     1  UNL1        0.1004
     14 N          63.4697   84.2879   14.5145 N.3     1  UNL1       -0.2668
     15 C          64.6240   85.0784   15.0554 C.3     1  UNL1        0.0750
     16 C          64.1745   85.7497   16.3191 C.3     1  UNL1        0.0480
     17 C          62.7422   85.3741   16.5594 C.3     1  UNL1        0.1278
     18 O          61.8944   85.8230   17.7125 O.3     1  UNL1       -0.3830
     19 C          62.3067   84.4706   15.4440 C.3     1  UNL1        0.1020
     20 H          61.0079   85.4378   17.6313 H       1  UNL1        0.2104
     21 N          61.3803   90.7207    9.9285 N.pl3   1  UNL1       -0.2825
     22 H          60.7685   91.4518    9.6829 H       1  UNL1        0.1551
     23 C          62.5884   91.0047   10.7710 C.ar    1  UNL1        0.0500
     24 C          62.6780   90.4542   12.1635 C.ar    1  UNL1        0.0134
     25 C          63.8861   90.7383   13.0060 C.ar    1  UNL1        0.0130
     26 C          63.9757   90.1878   14.3985 C.3     1  UNL1        0.0342
     27 C          65.0046   91.5728   12.4561 C.ar    1  UNL1        0.1307
     28 C          64.9151   92.1233   11.0636 C.ar    1  UNL1        0.0130
     29 C          66.0336   92.9578   10.5137 C.3     1  UNL1        0.0342
     30 C          63.7069   91.8393   10.2211 C.ar    1  UNL1        0.0134
     31 O          66.2127   91.8569   13.2986 O.3     1  UNL1       -0.4734
     32 C          66.2256   93.0442   14.2151 C.3     1  UNL1        0.2369
     33 C          66.4093   92.8504   15.6911 C.3     1  UNL1        0.1847
     34 O          65.2142   92.8105   16.5968 O.3     1  UNL1       -0.3784
     35 H          64.7816   93.6787   16.5997 H       1  UNL1        0.2106
@<TRIPOS>BOND
     1     7     8    1
     2     8     9   ar
     3     9    10   ar
     4    10     1    1
     5     1     2   ar
     6     2     3   ar
     7     3     4   ar
     8     4     5   ar
     9     5    21    1
    10    21    23    1
    11    23    24   ar
    12    24    25   ar
    13    25    26    1
    14    25    27   ar
    15    27    31    1
    16    31    32    1
    17    32    33    1
    18    33    34    1
    19    27    28   ar
    20    28    29    1
    21    28    30   ar
    22     5     6   ar
    23    10    11   ar
    24    11    12   ar
    25    12    13    1
    26    13    14    1
    27    14    15    1
    28    15    16    1
    29    16    17    1
    30    17    18    1
    31    17    19    1
    32    12     8   ar
    33    19    14    1
    34     6     1   ar
    35    30    23   ar
    36    21    22    1
    37    34    35    1
    38    18    20    1
@<TRIPOS>MOLECULE
*****
 35 38 0 0 0
SMALL
GASTEIGER

@<TRIPOS>ATOM
      1 C          61.5215   86.7656    9.6512 C.ar    1  UNL1        0.1522
      2 C          60.5320   86.5295    8.5489 C.ar    1  UNL1        0.0582
      3 C          59.8326   87.6910    7.9074 C.ar    1  UNL1        0.1049
      4 N          60.1225   89.0887    8.3683 N.ar    1  UNL1       -0.2119
      5 C          61.1119   89.3248    9.4707 C.ar    1  UNL1        0.2220
      6 N          61.8114   88.1633   10.1121 N.ar    1  UNL1       -0.1958
      7 C          64.2897   82.3200   10.3256 C.3     1  UNL1        0.0324
      8 C          63.4934   83.5606   10.6027 C.ar    1  UNL1       -0.0055
      9 C          62.9493   84.5071    9.5741 C.ar    1  UNL1        0.0769
     10 N          62.2210   85.6040   10.2928 N.ar    1  UNL1       -0.2894
     11 C          62.3151   85.3355   11.7655 C.ar    1  UNL1        0.0782
     12 C          63.1015   84.0726   11.9571 C.ar    1  UNL1        0.0089
     13 C          63.4370   83.4338   13.2721 C.3     1  UNL1        0.1004
     14 N          63.4594   84.2605   14.5235 N.3     1  UNL1       -0.2668
     15 C          64.6312   85.0377   15.0460 C.3     1  UNL1        0.0750
     16 C          64.2100   85.7127   16.3174 C.3     1  UNL1        0.0480
     17 C          62.7778   85.3529   16.5809 C.3     1  UNL1        0.1278
     18 O          61.9541   85.8102   17.7481 O.3     1  UNL1       -0.3830
     19 C          62.3140   84.4553   15.4721 C.3     1  UNL1        0.1020
     20 H          61.0621   85.4349   17.6812 H       1  UNL1        0.2104
     21 N          61.4019   90.7225    9.9315 N.pl3   1  UNL1       -0.2825
     22 H          60.8045   91.4605    9.6713 H       1  UNL1        0.1551
     23 C          62.6020   90.9957   10.7889 C.ar    1  UNL1        0.0500
     24 C          63.7284   91.8321   10.2580 C.ar    1  UNL1        0.0134
     25 C          64.9284   92.1053   11.1153 C.ar    1  UNL1        0.0130
     26 C          66.0548   92.9416   10.5844 C.3     1  UNL1        0.0342
     27 C          65.0022   91.5422   12.5037 C.ar    1  UNL1        0.1307
     28 C          63.8759   90.7059   13.0347 C.ar    1  UNL1        0.0130
     29 C          63.9496   90.1429   14.4230 C.3     1  UNL1        0.0342
     30 C          62.6757   90.4327   12.1773 C.ar    1  UNL1        0.0134
     31 O          66.2023   91.8155   13.3611 O.3     1  UNL1       -0.4734
     32 C          66.2263   93.0190   14.2560 C.3     1  UNL1        0.2369
     33 C          66.3896   92.8490   15.7373 C.3     1  UNL1        0.1847
     34 O          65.1836   92.8466   16.6294 O.3     1  UNL1       -0.3784
     35 H          64.7665   93.7222   16.6115 H       1  UNL1        0.2106
@<TRIPOS>BOND
     1     7     8    1
     2     8     9   ar
     3     9    10   ar
     4    10     1    1
     5     1     2   ar
     6     2     3   ar
     7     3     4   ar
     8     4     5   ar
     9     5    21    1
    10    21    23    1
    11    23    24   ar
    12    24    25   ar
    13    25    26    1
    14    25    27   ar
    15    27    31    1
    16    31    32    1
    17    32    33    1
    18    33    34    1
    19    27    28   ar
    20    28    29    1
    21    28    30   ar
    22     5     6   ar
    23    10    11   ar
    24    11    12   ar
    25    12    13    1
    26    13    14    1
    27    14    15    1
    28    15    16    1
    29    16    17    1
    30    17    18    1
    31    17    19    1
    32    12     8   ar
    33    19    14    1
    34     6     1   ar
    35    30    23   ar
    36    21    22    1
    37    34    35    1
    38    18    20    1
@<TRIPOS>MOLECULE
*****
 35 38 0 0 0
SMALL
GASTEIGER

@<TRIPOS>ATOM
      1 C          62.4048   90.0411   11.3368 C.ar    1  UNL1        0.1522
      2 C          61.0794   90.7193   11.1544 C.ar    1  UNL1        0.0582
      3 C          59.9617   90.0052   10.4538 C.ar    1  UNL1        0.1049
      4 N          60.1695   88.6130    9.9355 N.ar    1  UNL1       -0.2119
      5 C          61.4949   87.9349   10.1178 C.ar    1  UNL1        0.2220
      6 N          62.6126   88.6489   10.8185 N.ar    1  UNL1       -0.1958
      7 C          66.0124   91.4046   14.9433 C.3     1  UNL1        0.0324
      8 C          65.1808   91.3819   13.6952 C.ar    1  UNL1       -0.0055
      9 C          64.0796   90.4111   13.3870 C.ar    1  UNL1        0.0769
     10 N          63.5226   90.7552   12.0374 N.ar    1  UNL1       -0.2894
     11 C          64.2795   91.9386   11.5115 C.ar    1  UNL1        0.0782
     12 C          65.3043   92.3259   12.5361 C.ar    1  UNL1        0.0089
     13 C          66.2812   93.4585   12.4216 C.3     1  UNL1        0.1004
     14 N          66.8647   93.8136   11.0862 N.3     1  UNL1       -0.2668
     15 C          67.5003   92.8587   10.1197 C.3     1  UNL1        0.0750
     16 C          67.9435   93.6408    8.9190 C.3     1  UNL1        0.0480
     17 C          67.5818   95.0792    9.1433 C.3     1  UNL1        0.1278
     18 O          67.8413   96.2119    8.1948 O.3     1  UNL1       -0.3830
     19 C          66.9151   95.1859   10.4828 C.3     1  UNL1        0.1020
     20 H          67.5098   97.0382    8.5797 H       1  UNL1        0.2104
     21 N          61.7027   86.5427    9.5995 N.pl3   1  UNL1       -0.2825
     22 H          61.4265   86.3123    8.6831 H       1  UNL1        0.1551
     23 C          62.3313   85.5016   10.4775 C.ar    1  UNL1        0.0500
     24 C          62.1502   85.5662   11.9652 C.ar    1  UNL1        0.0134
     25 C          62.7788   84.5250   12.8431 C.ar    1  UNL1        0.0130
     26 C          62.5977   84.5896   14.3308 C.3     1  UNL1        0.0342
     27 C          63.5885   83.4193   12.2335 C.ar    1  UNL1        0.1307
     28 C          63.7697   83.3546   10.7459 C.ar    1  UNL1        0.0130
     29 C          64.5794   82.2489   10.1363 C.3     1  UNL1        0.0342
     30 C          63.1410   84.3958    9.8679 C.ar    1  UNL1        0.0134
     31 O          64.2171   82.3781   13.1116 O.3     1  UNL1       -0.4734
     32 C          63.4857   81.1012   13.4024 C.3     1  UNL1        0.2369
     33 C          61.9881   81.0614   13.3292 C.3     1  UNL1        0.1847
     34 O          61.1718   81.2125   14.5785 O.3     1  UNL1       -0.3784
     35 H          61.3262   80.4514   15.1597 H       1  UNL1        0.2106
@<TRIPOS>BOND
     1     7     8    1
     2     8     9   ar
     3     9    10   ar
     4    10     1    1
     5     1     2   ar
     6     2     3   ar
     7     3     4   ar
     8     4     5   ar
     9     5    21    1
    10    21    23    1
    11    23    24   ar
    12    24    25   ar
    13    25    26    1
    14    25    27   ar
    15    27    31    1
    16    31    32    1
    17    32    33    1
    18    33    34    1
    19    27    28   ar
    20    28    29    1
    21    28    30   ar
    22     5     6   ar
    23    10    11   ar
    24    11    12   ar
    25    12    13    1
    26    13    14    1
    27    14    15    1
    28    15    16    1
    29    16    17    1
    30    17    18    1
    31    17    19    1
    32    12     8   ar
    33    19    14    1
    34     6     1   ar
    35    30    23   ar
    36    21    22    1
    37    34    35    1
    38    18    20    1
@<TRIPOS>MOLECULE
*****
 35 38 0 0 0
SMALL
GASTEIGER

@<TRIPOS>ATOM
      1 C          61.5919   86.8067    9.6633 C.ar    1  UNL1        0.1522
      2 C          60.6001   86.6067    8.5559 C.ar    1  UNL1        0.0582
      3 C          59.8636   87.7831    7.9872 C.ar    1  UNL1        0.1049
      4 N          60.1188   89.1596    8.5259 N.ar    1  UNL1       -0.2119
      5 C          61.1105   89.3596    9.6333 C.ar    1  UNL1        0.2220
      6 N          61.8471   88.1832   10.2020 N.ar    1  UNL1       -0.1958
      7 C          64.6170   82.4990   10.0796 C.3     1  UNL1        0.0324
      8 C          63.7190   83.6502   10.4234 C.ar    1  UNL1       -0.0055
      9 C          63.1773   84.6642    9.4599 C.ar    1  UNL1        0.0769
     10 N          62.3284   85.6302   10.2321 N.ar    1  UNL1       -0.2894
     11 C          62.3455   85.2133   11.6728 C.ar    1  UNL1        0.0782
     12 C          63.2048   83.9895   11.7911 C.ar    1  UNL1        0.0089
     13 C          63.4986   83.2372   13.0551 C.3     1  UNL1        0.1004
     14 N          62.6980   82.0181   13.4056 N.3     1  UNL1       -0.2668
     15 C          63.1612   80.5961   13.2906 C.3     1  UNL1        0.0750
     16 C          62.0432   79.7061   13.7465 C.3     1  UNL1        0.0480
     17 C          60.8889   80.5781   14.1432 C.3     1  UNL1        0.1278
     18 O          59.5627   80.1044   14.6599 O.3     1  UNL1       -0.3830
     19 C          61.2937   82.0070   13.9325 C.3     1  UNL1        0.1020
     20 H          58.9945   80.8693   14.8414 H       1  UNL1        0.2104
     21 N          61.3657   90.7361   10.1720 N.pl3   1  UNL1       -0.2825
     22 H          60.7147   91.4566   10.0101 H       1  UNL1        0.1551
     23 C          62.6129   91.0148   10.9575 C.ar    1  UNL1        0.0500
     24 C          62.7494   90.4943   12.3577 C.ar    1  UNL1        0.0134
     25 C          63.9966   90.7730   13.1431 C.ar    1  UNL1        0.0130
     26 C          64.1331   90.2525   14.5433 C.3     1  UNL1        0.0342
     27 C          65.1072   91.5722   12.5284 C.ar    1  UNL1        0.1307
     28 C          64.9707   92.0926   11.1283 C.ar    1  UNL1        0.0130
     29 C          66.0813   92.8918   10.5136 C.3     1  UNL1        0.0342
     30 C          63.7235   91.8140   10.3428 C.ar    1  UNL1        0.0134
     31 O          66.3544   91.8508   13.3139 O.3     1  UNL1       -0.4734
     32 C          66.5745   93.2072   13.9154 C.3     1  UNL1        0.2369
     33 C          67.0234   93.3315   15.3412 C.3     1  UNL1        0.1847
     34 O          66.1444   92.8344   16.4504 O.3     1  UNL1       -0.3784
     35 H          65.3365   93.3700   16.4874 H       1  UNL1        0.2106
@<TRIPOS>BOND
     1     7     8    1
     2     8     9   ar
     3     9    10   ar
     4    10     1    1
     5     1     2   ar
     6     2     3   ar
     7     3     4   ar
     8     4     5   ar
     9     5    21    1
    10    21    23    1
    11    23    24   ar
    12    24    25   ar
    13    25    26    1
    14    25    27   ar
    15    27    31    1
    16    31    32    1
    17    32    33    1
    18    33    34    1
    19    27    28   ar
    20    28    29    1
    21    28    30   ar
    22     5     6   ar
    23    10    11   ar
    24    11    12   ar
    25    12    13    1
    26    13    14    1
    27    14    15    1
    28    15    16    1
    29    16    17    1
    30    17    18    1
    31    17    19    1
    32    12     8   ar
    33    19    14    1
    34     6     1   ar
    35    30    23   ar
    36    21    22    1
    37    34    35    1
    38    18    20    1
@<TRIPOS>MOLECULE
*****
 35 38 0 0 0
SMALL
GASTEIGER

@<TRIPOS>ATOM
      1 C          62.3019   90.0754   11.2707 C.ar    1  UNL1        0.1522
      2 C          60.9754   90.7429   11.0591 C.ar    1  UNL1        0.0582
      3 C          59.8785   90.0191   10.3359 C.ar    1  UNL1        0.1049
      4 N          60.1082   88.6279    9.8243 N.ar    1  UNL1       -0.2119
      5 C          61.4347   87.9604   10.0359 C.ar    1  UNL1        0.2220
      6 N          62.5315   88.6842   10.7591 N.ar    1  UNL1       -0.1958
      7 C          65.5816   91.7167   15.0694 C.3     1  UNL1        0.0324
      8 C          64.9063   91.5536   13.7400 C.ar    1  UNL1       -0.0055
      9 C          63.7516   90.6432   13.4435 C.ar    1  UNL1        0.0769
     10 N          63.3988   90.7992   11.9939 N.ar    1  UNL1       -0.2894
     11 C          64.3354   91.8059   11.3946 C.ar    1  UNL1        0.0782
     12 C          65.2671   92.2722   12.4737 C.ar    1  UNL1        0.0089
     13 C          66.3666   93.2801   12.3145 C.3     1  UNL1        0.1004
     14 N          67.0632   93.4278   10.9943 N.3     1  UNL1       -0.2668
     15 C          67.1812   94.6925   10.1964 C.3     1  UNL1        0.0750
     16 C          67.9550   94.3832    8.9493 C.3     1  UNL1        0.0480
     17 C          68.3153   92.9273    8.9763 C.3     1  UNL1        0.1278
     18 O          69.0906   92.1911    7.9242 O.3     1  UNL1       -0.3830
     19 C          67.7640   92.3369   10.2403 C.3     1  UNL1        0.1020
     20 H          69.1857   91.2614    8.1839 H       1  UNL1        0.2104
     21 N          61.6644   86.5692    9.5243 N.pl3   1  UNL1       -0.2825
     22 H          61.3370   86.3125    8.6320 H       1  UNL1        0.1551
     23 C          62.3929   85.5690   10.3721 C.ar    1  UNL1        0.0500
     24 C          63.0827   84.4021    9.7298 C.ar    1  UNL1        0.0134
     25 C          63.8112   83.4019   10.5776 C.ar    1  UNL1        0.0130
     26 C          64.5009   82.2349    9.9353 C.3     1  UNL1        0.0342
     27 C          63.8500   83.5687   12.0678 C.ar    1  UNL1        0.1307
     28 C          63.1604   84.7355   12.7102 C.ar    1  UNL1        0.0130
     29 C          63.1992   84.9023   14.2004 C.3     1  UNL1        0.0342
     30 C          62.4318   85.7358   11.8623 C.ar    1  UNL1        0.0134
     31 O          64.5786   82.5684   12.9157 O.3     1  UNL1       -0.4734
     32 C          63.8164   81.6965   13.8689 C.3     1  UNL1        0.2369
     33 C          63.0723   80.4984   13.3581 C.3     1  UNL1        0.1847
     34 O          62.4095   79.5599   14.3225 O.3     1  UNL1       -0.3784
     35 H          63.0857   79.1152   14.8572 H       1  UNL1        0.2106
@<TRIPOS>BOND
     1     7     8    1
     2     8     9   ar
     3     9    10   ar
     4    10     1    1
     5     1     2   ar
     6     2     3   ar
     7     3     4   ar
     8     4     5   ar
     9     5    21    1
    10    21    23    1
    11    23    24   ar
    12    24    25   ar
    13    25    26    1
    14    25    27   ar
    15    27    31    1
    16    31    32    1
    17    32    33    1
    18    33    34    1
    19    27    28   ar
    20    28    29    1
    21    28    30   ar
    22     5     6   ar
    23    10    11   ar
    24    11    12   ar
    25    12    13    1
    26    13    14    1
    27    14    15    1
    28    15    16    1
    29    16    17    1
    30    17    18    1
    31    17    19    1
    32    12     8   ar
    33    19    14    1
    34     6     1   ar
    35    30    23   ar
    36    21    22    1
    37    34    35    1
    38    18    20    1
@<TRIPOS>MOLECULE
*****
 35 38 0 0 0
SMALL
GASTEIGER

@<TRIPOS>ATOM
      1 C          64.0855   89.6242   14.1531 C.ar    1  UNL1        0.1522
      2 C          65.1271   90.6549   14.4737 C.ar    1  UNL1        0.0582
      3 C          65.3750   91.7906   13.5257 C.ar    1  UNL1        0.1049
      4 N          64.5814   91.8956   12.2572 N.ar    1  UNL1       -0.2119
      5 C          63.5398   90.8649   11.9367 C.ar    1  UNL1        0.2220
      6 N          63.2919   89.7292   12.8846 N.ar    1  UNL1       -0.1958
      7 C          62.6860   86.8730   18.4372 C.3     1  UNL1        0.0324
      8 C          63.1943   87.2239   17.0703 C.ar    1  UNL1       -0.0055
      9 C          63.2683   88.6026   16.4842 C.ar    1  UNL1        0.0769
     10 N          63.8376   88.4884   15.1011 N.ar    1  UNL1       -0.2894
     11 C          64.1153   87.0390   14.8324 C.ar    1  UNL1        0.0782
     12 C          63.7178   86.2575   16.0494 C.ar    1  UNL1        0.0089
     13 C          63.8249   84.7706   16.2163 C.3     1  UNL1        0.1004
     14 N          63.7510   83.8740   15.0161 N.3     1  UNL1       -0.2668
     15 C          62.6823   82.8588   14.7383 C.3     1  UNL1        0.0750
     16 C          63.0036   82.1925   13.4335 C.3     1  UNL1        0.0480
     17 C          64.2711   82.7958   12.9047 C.3     1  UNL1        0.1278
     18 O          64.9563   82.4251   11.6229 O.3     1  UNL1       -0.3830
     19 C          64.7329   83.8351   13.8828 C.3     1  UNL1        0.1020
     20 H          65.7556   82.9641   11.5159 H       1  UNL1        0.2104
     21 N          62.7462   90.9699   10.6681 N.pl3   1  UNL1       -0.2825
     22 H          62.6751   91.8342   10.2021 H       1  UNL1        0.1551
     23 C          62.0608   89.7582   10.1097 C.ar    1  UNL1        0.0500
     24 C          60.9874   89.9143    9.0736 C.ar    1  UNL1        0.0134
     25 C          60.3021   88.7025    8.5152 C.ar    1  UNL1        0.0130
     26 C          59.2286   88.8587    7.4791 C.3     1  UNL1        0.0342
     27 C          60.6901   87.3346    8.9928 C.ar    1  UNL1        0.1307
     28 C          61.7634   87.1784   10.0289 C.ar    1  UNL1        0.0130
     29 C          62.1514   85.8104   10.5065 C.3     1  UNL1        0.0342
     30 C          62.4488   88.3902   10.5874 C.ar    1  UNL1        0.0134
     31 O          60.0047   86.1228    8.4344 O.3     1  UNL1       -0.4734
     32 C          60.4633   85.5348    7.1329 C.3     1  UNL1        0.2369
     33 C          61.8312   84.9290    7.0242 C.3     1  UNL1        0.1847
     34 O          62.3454   84.4721    5.6912 O.3     1  UNL1       -0.3784
     35 H          61.8118   83.7253    5.3775 H       1  UNL1        0.2106
@<TRIPOS>BOND
     1     7     8    1
     2     8     9   ar
     3     9    10   ar
     4    10     1    1
     5     1     2   ar
     6     2     3   ar
     7     3     4   ar
     8     4     5   ar
     9     5    21    1
    10    21    23    1
    11    23    24   ar
    12    24    25   ar
    13    25    26    1
    14    25    27   ar
    15    27    31    1
    16    31    32    1
    17    32    33    1
    18    33    34    1
    19    27    28   ar
    20    28    29    1
    21    28    30   ar
    22     5     6   ar
    23    10    11   ar
    24    11    12   ar
    25    12    13    1
    26    13    14    1
    27    14    15    1
    28    15    16    1
    29    16    17    1
    30    17    18    1
    31    17    19    1
    32    12     8   ar
    33    19    14    1
    34     6     1   ar
    35    30    23   ar
    36    21    22    1
    37    34    35    1
    38    18    20    1
@<TRIPOS>MOLECULE
*****
 35 38 0 0 0
SMALL
GASTEIGER

@<TRIPOS>ATOM
      1 C          63.4404   85.9285   14.2117 C.ar    1  UNL1        0.1522
      2 C          63.4392   85.0639   15.4374 C.ar    1  UNL1        0.0582
      3 C          63.4963   85.6920   16.7983 C.ar    1  UNL1        0.1049
      4 N          63.5547   87.1847   16.9336 N.ar    1  UNL1       -0.2119
      5 C          63.5560   88.0494   15.7079 C.ar    1  UNL1        0.2220
      6 N          63.4988   87.4213   14.3469 N.ar    1  UNL1       -0.1958
      7 C          64.0616   82.5284   10.2199 C.3     1  UNL1        0.0324
      8 C          63.6688   83.7375   11.0159 C.ar    1  UNL1       -0.0055
      9 C          63.9540   83.9663   12.4706 C.ar    1  UNL1        0.0769
     10 N          63.3832   85.3004   12.8507 N.ar    1  UNL1       -0.2894
     11 C          62.7453   85.8962   11.6308 C.ar    1  UNL1        0.0782
     12 C          62.9217   84.9303   10.4968 C.ar    1  UNL1        0.0089
     13 C          62.4364   85.1232    9.0907 C.3     1  UNL1        0.1004
     14 N          61.4690   86.2254    8.7757 N.3     1  UNL1       -0.2668
     15 C          60.2470   86.1066    7.9140 C.3     1  UNL1        0.0750
     16 C          59.5765   87.4477    7.8729 C.3     1  UNL1        0.0480
     17 C          60.3841   88.3955    8.7093 C.3     1  UNL1        0.1278
     18 O          60.0761   89.8443    8.9462 O.3     1  UNL1       -0.3830
     19 C          61.5537   87.6400    9.2673 C.3     1  UNL1        0.1020
     20 H          60.7547   90.2291    9.5227 H       1  UNL1        0.2104
     21 N          63.6144   89.5421   15.8431 N.pl3   1  UNL1       -0.2825
     22 H          63.3147   89.9730   16.6761 H       1  UNL1        0.1551
     23 C          64.1293   90.3784   14.7094 C.ar    1  UNL1        0.0500
     24 C          63.4662   90.3102   13.3656 C.ar    1  UNL1        0.0134
     25 C          63.9811   91.1464   12.2318 C.ar    1  UNL1        0.0130
     26 C          63.3180   91.0782   10.8880 C.3     1  UNL1        0.0342
     27 C          65.1592   92.0508   12.4417 C.ar    1  UNL1        0.1307
     28 C          65.8224   92.1190   13.7854 C.ar    1  UNL1        0.0130
     29 C          67.0005   93.0235   13.9953 C.3     1  UNL1        0.0342
     30 C          65.3074   91.2828   14.9193 C.ar    1  UNL1        0.0134
     31 O          65.6742   92.8871   11.3078 O.3     1  UNL1       -0.4734
     32 C          66.8733   92.4361   10.5277 C.3     1  UNL1        0.2369
     33 C          67.6439   93.4218    9.7003 C.3     1  UNL1        0.1847
     34 O          69.1436   93.4160    9.7303 O.3     1  UNL1       -0.3784
     35 H          69.4502   93.6714   10.6144 H       1  UNL1        0.2106
@<TRIPOS>BOND
     1     7     8    1
     2     8     9   ar
     3     9    10   ar
     4    10     1    1
     5     1     2   ar
     6     2     3   ar
     7     3     4   ar
     8     4     5   ar
     9     5    21    1
    10    21    23    1
    11    23    24   ar
    12    24    25   ar
    13    25    26    1
    14    25    27   ar
    15    27    31    1
    16    31    32    1
    17    32    33    1
    18    33    34    1
    19    27    28   ar
    20    28    29    1
    21    28    30   ar
    22     5     6   ar
    23    10    11   ar
    24    11    12   ar
    25    12    13    1
    26    13    14    1
    27    14    15    1
    28    15    16    1
    29    16    17    1
    30    17    18    1
    31    17    19    1
    32    12     8   ar
    33    19    14    1
    34     6     1   ar
    35    30    23   ar
    36    21    22    1
    37    34    35    1
    38    18    20    1
@<TRIPOS>MOLECULE
*****
 35 38 0 0 0
SMALL
GASTEIGER

@<TRIPOS>ATOM
      1 C          62.2609   89.9182   10.8440 C.ar    1  UNL1        0.1522
      2 C          60.9122   90.4975   10.5351 C.ar    1  UNL1        0.0582
      3 C          59.9064   89.6895    9.7700 C.ar    1  UNL1        0.1049
      4 N          60.2491   88.3022    9.3139 N.ar    1  UNL1       -0.2119
      5 C          61.5978   87.7230    9.6229 C.ar    1  UNL1        0.2220
      6 N          62.6037   88.5309   10.3879 N.ar    1  UNL1       -0.1958
      7 C          66.0077   93.4398   12.0444 C.3     1  UNL1        0.0324
      8 C          64.9891   92.3449   12.1608 C.ar    1  UNL1       -0.0055
      9 C          64.1400   91.8085   11.0467 C.ar    1  UNL1        0.0769
     10 N          63.2669   90.7262   11.6091 N.ar    1  UNL1       -0.2894
     11 C          63.5763   90.5937   13.0708 C.ar    1  UNL1        0.0782
     12 C          64.6407   91.5941   13.4118 C.ar    1  UNL1        0.0089
     13 C          65.2497   91.8065   14.7661 C.3     1  UNL1        0.1004
     14 N          66.7005   92.1678   14.8877 N.3     1  UNL1       -0.2668
     15 C          67.3097   93.0207   15.9606 C.3     1  UNL1        0.0750
     16 C          68.7824   93.1197   15.6938 C.3     1  UNL1        0.0480
     17 C          69.0835   92.3279   14.4558 C.3     1  UNL1        0.1278
     18 O          70.4340   92.1548   13.8266 O.3     1  UNL1       -0.3830
     19 C          67.7966   91.7396   13.9576 C.3     1  UNL1        0.1020
     20 H          70.3537   91.5975   13.0367 H       1  UNL1        0.2104
     21 N          61.9406   86.3357    9.1668 N.pl3   1  UNL1       -0.2825
     22 H          61.8090   86.0806    8.2250 H       1  UNL1        0.1551
     23 C          62.4838   85.3372   10.1454 C.ar    1  UNL1        0.0500
     24 C          63.2363   84.1368    9.6526 C.ar    1  UNL1        0.0134
     25 C          63.7795   83.1383   10.6313 C.ar    1  UNL1        0.0130
     26 C          64.5321   81.9379   10.1384 C.3     1  UNL1        0.0342
     27 C          63.5702   83.3401   12.1028 C.ar    1  UNL1        0.1307
     28 C          62.8177   84.5404   12.5957 C.ar    1  UNL1        0.0130
     29 C          62.6085   84.7422   14.0672 C.3     1  UNL1        0.0342
     30 C          62.2745   85.5390   11.6170 C.ar    1  UNL1        0.0134
     31 O          64.1135   82.3415   13.0815 O.3     1  UNL1       -0.4734
     32 C          63.1743   81.5158   13.9098 C.3     1  UNL1        0.2369
     33 C          62.2107   80.5799   13.2423 C.3     1  UNL1        0.1847
     34 O          62.6703   79.7146   12.1066 O.3     1  UNL1       -0.3784
     35 H          62.9052   80.2731   11.3491 H       1  UNL1        0.2106
@<TRIPOS>BOND
     1     7     8    1
     2     8     9   ar
     3     9    10   ar
     4    10     1    1
     5     1     2   ar
     6     2     3   ar
     7     3     4   ar
     8     4     5   ar
     9     5    21    1
    10    21    23    1
    11    23    24   ar
    12    24    25   ar
    13    25    26    1
    14    25    27   ar
    15    27    31    1
    16    31    32    1
    17    32    33    1
    18    33    34    1
    19    27    28   ar
    20    28    29    1
    21    28    30   ar
    22     5     6   ar
    23    10    11   ar
    24    11    12   ar
    25    12    13    1
    26    13    14    1
    27    14    15    1
    28    15    16    1
    29    16    17    1
    30    17    18    1
    31    17    19    1
    32    12     8   ar
    33    19    14    1
    34     6     1   ar
    35    30    23   ar
    36    21    22    1
    37    34    35    1
    38    18    20    1
@<TRIPOS>MOLECULE
*****
 35 38 0 0 0
SMALL
GASTEIGER

@<TRIPOS>ATOM
      1 C          62.1186   89.7515   10.9164 C.ar    1  UNL1        0.1522
      2 C          60.8910   90.4557   10.4194 C.ar    1  UNL1        0.0582
      3 C          59.9152   89.7315    9.5401 C.ar    1  UNL1        0.1049
      4 N          60.1670   88.3031    9.1578 N.ar    1  UNL1       -0.2119
      5 C          61.3946   87.5989    9.6548 C.ar    1  UNL1        0.2220
      6 N          62.3704   88.3231   10.5341 N.ar    1  UNL1       -0.1958
      7 C          64.8809   91.3006   15.1415 C.3     1  UNL1        0.0324
      8 C          64.3641   91.1878   13.7379 C.ar    1  UNL1       -0.0055
      9 C          63.2927   90.2504   13.2655 C.ar    1  UNL1        0.0769
     10 N          63.0945   90.4758   11.7958 N.ar    1  UNL1       -0.2894
     11 C          64.0435   91.5525   11.3599 C.ar    1  UNL1        0.0782
     12 C          64.8282   91.9926   12.5601 C.ar    1  UNL1        0.0089
     13 C          65.8904   93.0515   12.5793 C.3     1  UNL1        0.1004
     14 N          67.0287   92.9544   13.5512 N.3     1  UNL1       -0.2668
     15 C          68.0568   91.8632   13.5988 C.3     1  UNL1        0.0750
     16 C          69.0023   92.1659   14.7232 C.3     1  UNL1        0.0480
     17 C          68.5587   93.4442   15.3706 C.3     1  UNL1        0.1278
     18 O          69.2188   94.1171   16.5374 O.3     1  UNL1       -0.3830
     19 C          67.3389   93.9315   14.6462 C.3     1  UNL1        0.1020
     20 H          68.7343   94.9274   16.7599 H       1  UNL1        0.2104
     21 N          61.6464   86.1704    9.2725 N.pl3   1  UNL1       -0.2825
     22 H          61.3799   85.8448    8.3824 H       1  UNL1        0.1551
     23 C          62.3041   85.2382   10.2462 C.ar    1  UNL1        0.0500
     24 C          62.0817   85.4132   11.7193 C.ar    1  UNL1        0.0134
     25 C          62.7394   84.4809   12.6931 C.ar    1  UNL1        0.0130
     26 C          62.5170   84.6559   14.1662 C.3     1  UNL1        0.0342
     27 C          63.6196   83.3736   12.1938 C.ar    1  UNL1        0.1307
     28 C          63.8420   83.1986   10.7208 C.ar    1  UNL1        0.0130
     29 C          64.7221   82.0913   10.2215 C.3     1  UNL1        0.0342
     30 C          63.1843   84.1309    9.7469 C.ar    1  UNL1        0.0134
     31 O          64.2773   82.4413   13.1677 O.3     1  UNL1       -0.4734
     32 C          63.7350   81.0566   13.3635 C.3     1  UNL1        0.2369
     33 C          62.2534   80.8349   13.4376 C.3     1  UNL1        0.1847
     34 O          61.4614   81.4304   14.5637 O.3     1  UNL1       -0.3784
     35 H          61.7291   81.0190   15.4003 H       1  UNL1        0.2106
@<TRIPOS>BOND
     1     7     8    1
     2     8     9   ar
     3     9    10   ar
     4    10     1    1
     5     1     2   ar
     6     2     3   ar
     7     3     4   ar
     8     4     5   ar
     9     5    21    1
    10    21    23    1
    11    23    24   ar
    12    24    25   ar
    13    25    26    1
    14    25    27   ar
    15    27    31    1
    16    31    32    1
    17    32    33    1
    18    33    34    1
    19    27    28   ar
    20    28    29    1
    21    28    30   ar
    22     5     6   ar
    23    10    11   ar
    24    11    12   ar
    25    12    13    1
    26    13    14    1
    27    14    15    1
    28    15    16    1
    29    16    17    1
    30    17    18    1
    31    17    19    1
    32    12     8   ar
    33    19    14    1
    34     6     1   ar
    35    30    23   ar
    36    21    22    1
    37    34    35    1
    38    18    20    1
