@<TRIPOS>MOLECULE
*****
 24 26 0 0 0
SMALL
GASTEIGER

@<TRIPOS>ATOM
      1 N          68.0085   93.3676   15.1267 N.pl3   1  UNL1       -0.3375
      2 C          66.9650   92.8515   14.1808 C.ar    1  UNL1        0.1567
      3 N          66.8170   93.2328   12.7377 N.ar    1  UNL1       -0.2245
      4 C          65.6468   92.4804   12.1770 C.ar    1  UNL1        0.0893
      5 C          65.0308   92.4566   10.8096 C.ar    1  UNL1        0.0210
      6 C          63.8394   91.5864   10.5387 C.ar    1  UNL1        0.0199
      7 C          63.2641   90.7400   11.6354 C.ar    1  UNL1        0.1066
      8 C          63.8801   90.7638   13.0028 C.ar    1  UNL1        0.0264
      9 C          65.0715   91.6340   13.2736 C.ar    1  UNL1        0.0510
     10 S          65.8861   91.8633   14.5120 S.2     1  UNL1       -0.0519
     11 H          68.6779   94.0181   14.8138 H       1  UNL1        0.1442
     12 H          68.0239   93.0559   16.0604 H       1  UNL1        0.1442
     13 S          62.0727   89.8697   11.3645 S.O2    1  UNL1        0.0129
     14 O          61.9136   90.5073   10.0161 O.2     1  UNL1       -0.1683
     15 O          62.2317   89.2322   12.7129 O.2     1  UNL1       -0.1683
     16 C          60.8813   88.9996   11.0936 C.3     1  UNL1        0.1823
     17 C          60.9346   87.9743   10.0000 C.ar    1  UNL1        0.0026
     18 C          59.8316   87.9012    8.9860 C.ar    1  UNL1       -0.0016
     19 C          59.8848   86.8759    7.8925 C.ar    1  UNL1        0.0120
     20 C          61.0411   85.9236    7.8129 C.ar    1  UNL1        0.0682
     21 CL         61.0944   84.8983    6.7193 Cl      1  UNL1       -0.0814
     22 C          62.1440   85.9967    8.8269 C.ar    1  UNL1        0.0679
     23 CL         63.3003   85.0444    8.7473 Cl      1  UNL1       -0.0814
     24 C          62.0908   87.0220    9.9204 C.ar    1  UNL1        0.0097
@<TRIPOS>BOND
     1     1     2    1
     2     2     3   ar
     3     3     4   ar
     4     4     5   ar
     5     5     6   ar
     6     6     7   ar
     7     7    13    1
     8    13    14    2
     9    13    15    2
    10    13    16    1
    11    16    17    1
    12    17    18   ar
    13    18    19   ar
    14    19    20   ar
    15    20    21    1
    16    20    22   ar
    17    22    23    1
    18    22    24   ar
    19     7     8   ar
    20     8     9   ar
    21     9    10   ar
    22    10     2   ar
    23     9     4   ar
    24    24    17   ar
    25     1    11    1
    26     1    12    1
@<TRIPOS>MOLECULE
*****
 24 26 0 0 0
SMALL
GASTEIGER

@<TRIPOS>ATOM
      1 N          67.6081   95.1342   10.3982 N.pl3   1  UNL1       -0.3375
      2 C          66.6579   94.0669   10.8541 C.ar    1  UNL1        0.1567
      3 N          66.6468   93.4147   12.2049 N.ar    1  UNL1       -0.2245
      4 C          65.5340   92.4091   12.2250 C.ar    1  UNL1        0.0893
      5 C          65.0494   91.4694   13.2890 C.ar    1  UNL1        0.0210
      6 C          63.8882   90.5605   13.0147 C.ar    1  UNL1        0.0199
      7 C          63.2115   90.5911   11.6763 C.ar    1  UNL1        0.1066
      8 C          63.6961   91.5308   10.6123 C.ar    1  UNL1        0.0264
      9 C          64.8573   92.4397   10.8866 C.ar    1  UNL1        0.0510
     10 S          65.5519   93.4643   10.0394 S.2     1  UNL1       -0.0519
     11 H          68.3046   95.4670   11.0092 H       1  UNL1        0.1442
     12 H          67.5353   95.5019    9.4878 H       1  UNL1        0.1442
     13 S          62.0502   89.6821   11.4021 S.O2    1  UNL1        0.0129
     14 O          62.3658   88.9040   12.6450 O.2     1  UNL1       -0.1683
     15 O          61.7346   90.4602   10.1591 O.2     1  UNL1       -0.1683
     16 C          60.8890   88.7731   11.1278 C.3     1  UNL1        0.1823
     17 C          60.9600   87.7845   10.0020 C.ar    1  UNL1        0.0026
     18 C          59.8252   87.6753    9.0270 C.ar    1  UNL1       -0.0016
     19 C          59.8962   86.6866    7.9012 C.ar    1  UNL1        0.0120
     20 C          61.1019   85.8071    7.7503 C.ar    1  UNL1        0.0682
     21 CL         61.1729   84.8185    6.6245 Cl      1  UNL1       -0.0814
     22 C          62.2366   85.9163    8.7252 C.ar    1  UNL1        0.0679
     23 CL         63.4424   85.0368    8.5744 Cl      1  UNL1       -0.0814
     24 C          62.1656   86.9050    9.8511 C.ar    1  UNL1        0.0097
@<TRIPOS>BOND
     1     1     2    1
     2     2     3   ar
     3     3     4   ar
     4     4     5   ar
     5     5     6   ar
     6     6     7   ar
     7     7    13    1
     8    13    14    2
     9    13    15    2
    10    13    16    1
    11    16    17    1
    12    17    18   ar
    13    18    19   ar
    14    19    20   ar
    15    20    21    1
    16    20    22   ar
    17    22    23    1
    18    22    24   ar
    19     7     8   ar
    20     8     9   ar
    21     9    10   ar
    22    10     2   ar
    23     9     4   ar
    24    24    17   ar
    25     1    11    1
    26     1    12    1
@<TRIPOS>MOLECULE
*****
 24 26 0 0 0
SMALL
GASTEIGER

@<TRIPOS>ATOM
      1 N          67.2577   95.7836   10.4824 N.pl3   1  UNL1       -0.3375
      2 C          66.4801   94.5911   10.9549 C.ar    1  UNL1        0.1567
      3 N          66.4984   94.0195   12.3416 N.ar    1  UNL1       -0.2245
      4 C          65.5772   92.8359   12.3674 C.ar    1  UNL1        0.0893
      5 C          65.1977   91.8832   13.4619 C.ar    1  UNL1        0.0210
      6 C          64.2304   90.7706   13.1857 C.ar    1  UNL1        0.0199
      7 C          63.6426   90.6107   11.8149 C.ar    1  UNL1        0.1066
      8 C          64.0222   91.5635   10.7204 C.ar    1  UNL1        0.0264
      9 C          64.9895   92.6761   10.9966 C.ar    1  UNL1        0.0510
     10 S          65.5475   93.7608   10.1237 S.2     1  UNL1       -0.0519
     11 H          67.8470   96.2658   11.1065 H       1  UNL1        0.1442
     12 H          67.1789   96.0841    9.5482 H       1  UNL1        0.1442
     13 S          62.6753   89.4980   11.5387 S.O2    1  UNL1        0.0129
     14 O          62.8148   89.7425   10.0654 O.2     1  UNL1       -0.1683
     15 O          62.5358   89.2535   13.0121 O.2     1  UNL1       -0.1683
     16 C          61.7080   88.3854   11.2625 C.3     1  UNL1        0.1823
     17 C          62.2170   87.0116   10.9408 C.ar    1  UNL1        0.0026
     18 C          62.3844   86.5895    9.5111 C.ar    1  UNL1       -0.0016
     19 C          62.8934   85.2156    9.1895 C.ar    1  UNL1        0.0120
     20 C          63.2351   84.2639   10.2974 C.ar    1  UNL1        0.0682
     21 CL         63.7442   82.8901    9.9758 Cl      1  UNL1       -0.0814
     22 C          63.0678   84.6860   11.7270 C.ar    1  UNL1        0.0679
     23 CL         63.4094   83.7343   12.8350 Cl      1  UNL1       -0.0814
     24 C          62.5587   86.0599   12.0487 C.ar    1  UNL1        0.0097
@<TRIPOS>BOND
     1     1     2    1
     2     2     3   ar
     3     3     4   ar
     4     4     5   ar
     5     5     6   ar
     6     6     7   ar
     7     7    13    1
     8    13    14    2
     9    13    15    2
    10    13    16    1
    11    16    17    1
    12    17    18   ar
    13    18    19   ar
    14    19    20   ar
    15    20    21    1
    16    20    22   ar
    17    22    23    1
    18    22    24   ar
    19     7     8   ar
    20     8     9   ar
    21     9    10   ar
    22    10     2   ar
    23     9     4   ar
    24    24    17   ar
    25     1    11    1
    26     1    12    1
@<TRIPOS>MOLECULE
*****
 24 26 0 0 0
SMALL
GASTEIGER

@<TRIPOS>ATOM
      1 N          63.8890   81.6137   13.8481 N.pl3   1  UNL1       -0.3375
      2 C          63.7520   83.0013   14.4010 C.ar    1  UNL1        0.1567
      3 N          63.1490   83.3674   15.7248 N.ar    1  UNL1       -0.2245
      4 C          63.2183   84.8588   15.8692 C.ar    1  UNL1        0.0893
      5 C          62.7768   85.7827   16.9653 C.ar    1  UNL1        0.0210
      6 C          62.9810   87.2622   16.8269 C.ar    1  UNL1        0.0199
      7 C          63.6269   87.8179   15.5923 C.ar    1  UNL1        0.1066
      8 C          64.0684   86.8941   14.4962 C.ar    1  UNL1        0.0264
      9 C          63.8641   85.4145   14.6346 C.ar    1  UNL1        0.0510
     10 S          64.1940   84.2665   13.7273 S.2     1  UNL1       -0.0519
     11 H          63.5669   80.8425   14.3683 H       1  UNL1        0.1442
     12 H          64.3010   81.4742   12.9649 H       1  UNL1        0.1442
     13 S          63.8311   89.2975   15.4539 S.O2    1  UNL1        0.0129
     14 O          65.1111   89.0513   14.7116 O.2     1  UNL1       -0.1683
     15 O          62.5512   89.5437   16.1962 O.2     1  UNL1       -0.1683
     16 C          64.0355   90.7770   15.3155 C.3     1  UNL1        0.1823
     17 C          64.5662   91.3441   14.0322 C.ar    1  UNL1        0.0026
     18 C          65.8630   92.0980   14.0250 C.ar    1  UNL1       -0.0016
     19 C          66.3938   92.6650   12.7417 C.ar    1  UNL1        0.0120
     20 C          65.6277   92.4782   11.4657 C.ar    1  UNL1        0.0682
     21 CL         66.1584   93.0452   10.1824 Cl      1  UNL1       -0.0814
     22 C          64.3309   91.7243   11.4729 C.ar    1  UNL1        0.0679
     23 CL         63.5648   91.5375   10.1969 Cl      1  UNL1       -0.0814
     24 C          63.8002   91.1573   12.7562 C.ar    1  UNL1        0.0097
@<TRIPOS>BOND
     1     1     2    1
     2     2     3   ar
     3     3     4   ar
     4     4     5   ar
     5     5     6   ar
     6     6     7   ar
     7     7    13    1
     8    13    14    2
     9    13    15    2
    10    13    16    1
    11    16    17    1
    12    17    18   ar
    13    18    19   ar
    14    19    20   ar
    15    20    21    1
    16    20    22   ar
    17    22    23    1
    18    22    24   ar
    19     7     8   ar
    20     8     9   ar
    21     9    10   ar
    22    10     2   ar
    23     9     4   ar
    24    24    17   ar
    25     1    11    1
    26     1    12    1
@<TRIPOS>MOLECULE
*****
 24 26 0 0 0
SMALL
GASTEIGER

@<TRIPOS>ATOM
      1 N          63.9386   81.6137   13.8081 N.pl3   1  UNL1       -0.3375
      2 C          63.8172   83.0155   14.3280 C.ar    1  UNL1        0.1567
      3 N          63.3400   83.4110   15.6940 N.ar    1  UNL1       -0.2245
      4 C          63.3795   84.9078   15.7835 C.ar    1  UNL1        0.0893
      5 C          63.0235   85.8569   16.8891 C.ar    1  UNL1        0.0210
      6 C          63.1691   87.3357   16.6840 C.ar    1  UNL1        0.0199
      7 C          63.6708   87.8653   15.3733 C.ar    1  UNL1        0.1066
      8 C          64.0268   86.9161   14.2677 C.ar    1  UNL1        0.0264
      9 C          63.8811   85.4374   14.4728 C.ar    1  UNL1        0.0510
     10 S          64.1516   84.2679   13.5733 S.2     1  UNL1       -0.0519
     11 H          63.6933   80.8527   14.3825 H       1  UNL1        0.1442
     12 H          64.2636   81.4548   12.8925 H       1  UNL1        0.1442
     13 S          63.8164   89.3441   15.1683 S.O2    1  UNL1        0.0129
     14 O          64.1605   89.1103   13.7271 O.2     1  UNL1       -0.1683
     15 O          63.4724   89.5778   16.6094 O.2     1  UNL1       -0.1683
     16 C          63.9621   90.8228   14.9632 C.3     1  UNL1        0.1823
     17 C          65.3169   91.4615   15.0450 C.ar    1  UNL1        0.0026
     18 C          65.6804   92.2995   16.2348 C.ar    1  UNL1       -0.0016
     19 C          67.0351   92.9382   16.3166 C.ar    1  UNL1        0.0120
     20 C          68.0264   92.7389   15.2085 C.ar    1  UNL1        0.0682
     21 CL         69.3812   93.3776   15.2903 Cl      1  UNL1       -0.0814
     22 C          67.6629   91.9009   14.0188 C.ar    1  UNL1        0.0679
     23 CL         68.6542   91.7016   12.9107 Cl      1  UNL1       -0.0814
     24 C          66.3081   91.2622   13.9370 C.ar    1  UNL1        0.0097
@<TRIPOS>BOND
     1     1     2    1
     2     2     3   ar
     3     3     4   ar
     4     4     5   ar
     5     5     6   ar
     6     6     7   ar
     7     7    13    1
     8    13    14    2
     9    13    15    2
    10    13    16    1
    11    16    17    1
    12    17    18   ar
    13    18    19   ar
    14    19    20   ar
    15    20    21    1
    16    20    22   ar
    17    22    23    1
    18    22    24   ar
    19     7     8   ar
    20     8     9   ar
    21     9    10   ar
    22    10     2   ar
    23     9     4   ar
    24    24    17   ar
    25     1    11    1
    26     1    12    1
@<TRIPOS>MOLECULE
*****
 24 26 0 0 0
SMALL
GASTEIGER

@<TRIPOS>ATOM
      1 N          61.3924   83.8205    5.7132 N.pl3   1  UNL1       -0.3375
      2 C          61.2307   84.8610    6.7815 C.ar    1  UNL1        0.1567
      3 N          59.9659   85.5969    7.1113 N.ar    1  UNL1       -0.2245
      4 C          60.2589   86.5391    8.2412 C.ar    1  UNL1        0.0893
      5 C          59.3960   87.5170    8.9821 C.ar    1  UNL1        0.0210
      6 C          59.9789   88.3412   10.0914 C.ar    1  UNL1        0.0199
      7 C          61.4248   88.1876   10.4599 C.ar    1  UNL1        0.1066
      8 C          62.2878   87.2097    9.7190 C.ar    1  UNL1        0.0264
      9 C          61.7048   86.3854    8.6097 C.ar    1  UNL1        0.0510
     10 S          62.3054   85.3483    7.7075 S.2     1  UNL1       -0.0519
     11 H          60.6236   83.5664    5.1532 H       1  UNL1        0.1442
     12 H          62.2673   83.3917    5.5721 H       1  UNL1        0.1442
     13 S          62.0078   89.0119   11.5693 S.O2    1  UNL1        0.0129
     14 O          62.9849   87.9146   11.8711 O.2     1  UNL1       -0.1683
     15 O          61.0306   90.1091   11.2676 O.2     1  UNL1       -0.1683
     16 C          62.5907   89.8361   12.6787 C.3     1  UNL1        0.1823
     17 C          63.6462   90.8587   12.3784 C.ar    1  UNL1        0.0026
     18 C          63.8398   91.3463   10.9731 C.ar    1  UNL1       -0.0016
     19 C          64.8952   92.3690   10.6728 C.ar    1  UNL1        0.0120
     20 C          65.7571   92.9040   11.7778 C.ar    1  UNL1        0.0682
     21 CL         66.8126   93.9266   11.4775 Cl      1  UNL1       -0.0814
     22 C          65.5635   92.4164   13.1830 C.ar    1  UNL1        0.0679
     23 CL         66.4254   92.9514   14.2880 Cl      1  UNL1       -0.0814
     24 C          64.5080   91.3938   13.4833 C.ar    1  UNL1        0.0097
@<TRIPOS>BOND
     1     1     2    1
     2     2     3   ar
     3     3     4   ar
     4     4     5   ar
     5     5     6   ar
     6     6     7   ar
     7     7    13    1
     8    13    14    2
     9    13    15    2
    10    13    16    1
    11    16    17    1
    12    17    18   ar
    13    18    19   ar
    14    19    20   ar
    15    20    21    1
    16    20    22   ar
    17    22    23    1
    18    22    24   ar
    19     7     8   ar
    20     8     9   ar
    21     9    10   ar
    22    10     2   ar
    23     9     4   ar
    24    24    17   ar
    25     1    11    1
    26     1    12    1
@<TRIPOS>MOLECULE
*****
 24 26 0 0 0
SMALL
GASTEIGER

@<TRIPOS>ATOM
      1 N          63.4862   80.3630   14.1889 N.pl3   1  UNL1       -0.3375
      2 C          63.2863   81.5392   13.2797 C.ar    1  UNL1        0.1567
      3 N          63.4765   81.5459   11.7918 N.ar    1  UNL1       -0.2245
      4 C          63.1688   82.9260   11.2913 C.ar    1  UNL1        0.0893
      5 C          63.1859   83.5214    9.9147 C.ar    1  UNL1        0.0210
      6 C          62.8226   84.9632    9.7166 C.ar    1  UNL1        0.0199
      7 C          62.4422   85.8096   10.8952 C.ar    1  UNL1        0.1066
      8 C          62.4252   85.2142   12.2718 C.ar    1  UNL1        0.0264
      9 C          62.7885   83.7724   12.4699 C.ar    1  UNL1        0.0510
     10 S          62.8611   82.9153   13.6988 S.2     1  UNL1       -0.0519
     11 H          63.7680   79.4960   13.8174 H       1  UNL1        0.1442
     12 H          63.3356   80.4581   15.1572 H       1  UNL1        0.1442
     13 S          62.0789   87.2514   10.6971 S.O2    1  UNL1        0.0129
     14 O          61.2582   87.2170   11.9522 O.2     1  UNL1       -0.1683
     15 O          62.8995   87.2858    9.4420 O.2     1  UNL1       -0.1683
     16 C          61.7155   88.6932   10.4990 C.3     1  UNL1        0.1823
     17 C          62.6544   89.7721   10.9510 C.ar    1  UNL1        0.0026
     18 C          63.0403   90.8737   10.0087 C.ar    1  UNL1       -0.0016
     19 C          63.9792   91.9527   10.4607 C.ar    1  UNL1        0.0120
     20 C          64.5322   91.9301   11.8549 C.ar    1  UNL1        0.0682
     21 CL         65.4711   93.0091   12.3069 Cl      1  UNL1       -0.0814
     22 C          64.1463   90.8286   12.7971 C.ar    1  UNL1        0.0679
     23 CL         64.6992   90.8061   14.1913 Cl      1  UNL1       -0.0814
     24 C          63.2074   89.7497   12.3451 C.ar    1  UNL1        0.0097
@<TRIPOS>BOND
     1     1     2    1
     2     2     3   ar
     3     3     4   ar
     4     4     5   ar
     5     5     6   ar
     6     6     7   ar
     7     7    13    1
     8    13    14    2
     9    13    15    2
    10    13    16    1
    11    16    17    1
    12    17    18   ar
    13    18    19   ar
    14    19    20   ar
    15    20    21    1
    16    20    22   ar
    17    22    23    1
    18    22    24   ar
    19     7     8   ar
    20     8     9   ar
    21     9    10   ar
    22    10     2   ar
    23     9     4   ar
    24    24    17   ar
    25     1    11    1
    26     1    12    1
@<TRIPOS>MOLECULE
*****
 24 26 0 0 0
SMALL
GASTEIGER

@<TRIPOS>ATOM
      1 N          63.0983   81.2313   11.1978 N.pl3   1  UNL1       -0.3375
      2 C          63.3741   82.5027   11.9444 C.ar    1  UNL1        0.1567
      3 N          64.2572   82.6442   13.1486 N.ar    1  UNL1       -0.2245
      4 C          64.2441   84.0848   13.5664 C.ar    1  UNL1        0.0893
      5 C          64.9286   84.8114   14.6861 C.ar    1  UNL1        0.0210
      6 C          64.7218   86.2869   14.8596 C.ar    1  UNL1        0.0199
      7 C          63.8306   87.0357   13.9136 C.ar    1  UNL1        0.1066
      8 C          63.1462   86.3091   12.7940 C.ar    1  UNL1        0.0264
      9 C          63.3529   84.8337   12.6204 C.ar    1  UNL1        0.0510
     10 S          62.8152   83.8559   11.6180 S.2     1  UNL1       -0.0519
     11 H          63.5144   80.3884   11.4905 H       1  UNL1        0.1442
     12 H          62.5013   81.2398   10.4150 H       1  UNL1        0.1442
     13 S          63.6238   88.5113   14.0873 S.O2    1  UNL1        0.0129
     14 O          63.7968   88.3610   15.5696 O.2     1  UNL1       -0.1683
     15 O          63.4508   88.6615   12.6049 O.2     1  UNL1       -0.1683
     16 C          63.4171   89.9868   14.2610 C.3     1  UNL1        0.1823
     17 C          64.5550   90.8561   14.7075 C.ar    1  UNL1        0.0026
     18 C          64.4408   91.6480   15.9764 C.ar    1  UNL1       -0.0016
     19 C          65.5787   92.5173   16.4230 C.ar    1  UNL1        0.0120
     20 C          66.8308   92.5948   15.6006 C.ar    1  UNL1        0.0682
     21 CL         67.9688   93.4641   16.0472 Cl      1  UNL1       -0.0814
     22 C          66.9451   91.8029   14.3318 C.ar    1  UNL1        0.0679
     23 CL         68.1972   91.8804   13.5095 Cl      1  UNL1       -0.0814
     24 C          65.8072   90.9336   13.8853 C.ar    1  UNL1        0.0097
@<TRIPOS>BOND
     1     1     2    1
     2     2     3   ar
     3     3     4   ar
     4     4     5   ar
     5     5     6   ar
     6     6     7   ar
     7     7    13    1
     8    13    14    2
     9    13    15    2
    10    13    16    1
    11    16    17    1
    12    17    18   ar
    13    18    19   ar
    14    19    20   ar
    15    20    21    1
    16    20    22   ar
    17    22    23    1
    18    22    24   ar
    19     7     8   ar
    20     8     9   ar
    21     9    10   ar
    22    10     2   ar
    23     9     4   ar
    24    24    17   ar
    25     1    11    1
    26     1    12    1
@<TRIPOS>MOLECULE
*****
 24 26 0 0 0
SMALL
GASTEIGER

@<TRIPOS>ATOM
      1 N          59.4712   88.7504    7.4685 N.pl3   1  UNL1       -0.3375
      2 C          60.3148   88.7609    8.7087 C.ar    1  UNL1        0.1567
      3 N          61.0921   87.6007    9.2563 N.ar    1  UNL1       -0.2245
      4 C          61.7870   88.0563   10.5051 C.ar    1  UNL1        0.0893
      5 C          62.6915   87.3445   11.4670 C.ar    1  UNL1        0.0210
      6 C          63.2481   88.0745   12.6532 C.ar    1  UNL1        0.0199
      7 C          62.9003   89.5163   12.8776 C.ar    1  UNL1        0.1066
      8 C          61.9958   90.2281   11.9157 C.ar    1  UNL1        0.0264
      9 C          61.4391   89.4980   10.7295 C.ar    1  UNL1        0.0510
     10 S          60.5293   89.9335    9.6192 S.2     1  UNL1       -0.0519
     11 H          59.3921   87.9274    6.9340 H       1  UNL1        0.1442
     12 H          58.9967   89.5664    7.1890 H       1  UNL1        0.1442
     13 S          63.4570   90.2463   14.0639 S.O2    1  UNL1        0.0129
     14 O          63.2630   91.5519   13.3514 O.2     1  UNL1       -0.1683
     15 O          63.6510   88.9407   14.7763 O.2     1  UNL1       -0.1683
     16 C          64.0137   90.9763   15.2501 C.3     1  UNL1        0.1823
     17 C          65.3990   91.5491   15.1959 C.ar    1  UNL1        0.0026
     18 C          65.9099   92.3849   16.3319 C.ar    1  UNL1       -0.0016
     19 C          67.2952   92.9577   16.2777 C.ar    1  UNL1        0.0120
     20 C          68.1696   92.6945   15.0876 C.ar    1  UNL1        0.0682
     21 CL         69.5549   93.2672   15.0334 Cl      1  UNL1       -0.0814
     22 C          67.6586   91.8587   13.9517 C.ar    1  UNL1        0.0679
     23 CL         68.5330   91.5955   12.7616 Cl      1  UNL1       -0.0814
     24 C          66.2733   91.2859   14.0059 C.ar    1  UNL1        0.0097
@<TRIPOS>BOND
     1     1     2    1
     2     2     3   ar
     3     3     4   ar
     4     4     5   ar
     5     5     6   ar
     6     6     7   ar
     7     7    13    1
     8    13    14    2
     9    13    15    2
    10    13    16    1
    11    16    17    1
    12    17    18   ar
    13    18    19   ar
    14    19    20   ar
    15    20    21    1
    16    20    22   ar
    17    22    23    1
    18    22    24   ar
    19     7     8   ar
    20     8     9   ar
    21     9    10   ar
    22    10     2   ar
    23     9     4   ar
    24    24    17   ar
    25     1    11    1
    26     1    12    1
