@<TRIPOS>MOLECULE
*****
 33 37 0 0 0
SMALL
GASTEIGER

@<TRIPOS>ATOM
      1 C          61.9734   89.6496   11.7923 C.3     1  UNL1        0.0813
      2 C          60.9420   90.5530   11.1838 C.3     1  UNL1        0.0127
      3 C          63.7029   83.3448   11.7015 C.ar    1  UNL1        0.1578
      4 C          63.5183   83.1370   10.2275 C.ar    1  UNL1        0.1356
      5 N          63.0617   84.2732    9.3612 N.ar    1  UNL1       -0.2407
      6 C          62.7896   85.6173    9.9690 C.ar    1  UNL1        0.0815
      7 C          62.3330   86.7536    9.1027 C.ar    1  UNL1        0.0188
      8 C          62.0610   88.0977    9.7105 C.ar    1  UNL1       -0.0023
      9 C          62.2455   88.3055   11.1846 C.ar    1  UNL1       -0.0152
     10 C          62.7021   87.1692   12.0508 C.ar    1  UNL1       -0.0023
     11 C          62.9742   85.8251   11.4430 C.ar    1  UNL1        0.0204
     12 C          63.4308   84.6888   12.3092 C.ar    1  UNL1        0.0400
     13 O          64.1595   82.2085   12.5677 O.3     1  UNL1       -0.4712
     14 C          63.1504   81.3300   13.2460 C.3     1  UNL1        0.2374
     15 C          62.3621   81.8534   14.4098 C.3     1  UNL1        0.1894
     16 C          62.4361   84.1626   15.5983 C.3     1  UNL1        0.1743
     17 O          63.0041   82.7900   15.3901 O.3     1  UNL1       -0.3471
     18 C          62.7328   90.0903   13.0085 C.ar    1  UNL1        0.1508
     19 N          62.4086   89.7314   14.4284 N.ar    1  UNL1       -0.1326
     20 N          63.4251   90.3866   15.3158 N.ar    1  UNL1       -0.1264
     21 C          64.3774   91.1506   14.4444 C.ar    1  UNL1        0.1978
     22 C          65.5789   91.9894   14.7651 C.ar    1  UNL1        0.1763
     23 F          66.0068   92.1725   16.1910 F       1  UNL1       -0.2009
     24 C          66.3525   92.6450   13.6598 C.ar    1  UNL1        0.0374
     25 C          65.9247   92.4619   12.2338 C.ar    1  UNL1        0.0571
     26 C          64.7232   91.6231   11.9131 C.ar    1  UNL1        0.0858
     27 N          63.9495   90.9675   13.0184 N.ar    1  UNL1       -0.2737
     28 C          66.6984   93.1175   11.1286 C.ar    1  UNL1        0.1781
     29 C          66.2607   94.3123   10.3343 C.ar    1  UNL1        0.0582
     30 C          67.3374   94.6266    9.3384 C.ar    1  UNL1        0.1011
     31 C          67.3150   95.7451    8.3391 C.3     1  UNL1        0.0557
     32 N          68.4407   93.6261    9.5173 N.ar    1  UNL1       -0.0813
     33 O          68.0458   92.6934   10.6237 O.2     1  UNL1       -0.3537
@<TRIPOS>BOND
     1    16    17    1
     2    17    15    1
     3    15    14    1
     4    14    13    1
     5    13     3    1
     6     3     4   ar
     7     4     5   ar
     8     5     6   ar
     9     6     7   ar
    10     7     8   ar
    11     8     9   ar
    12     9     1    1
    13     1     2    1
    14     1    18    1
    15    18    19   ar
    16    19    20   ar
    17    20    21   ar
    18    21    22   ar
    19    22    23    1
    20    22    24   ar
    21    24    25   ar
    22    25    28    1
    23    28    29   ar
    24    29    30   ar
    25    30    31    1
    26    30    32   ar
    27    32    33   ar
    28    25    26   ar
    29    26    27   ar
    30     9    10   ar
    31    10    11   ar
    32    11    12   ar
    33    12     3   ar
    34    11     6   ar
    35    27    18   ar
    36    27    21   ar
    37    33    28   ar
@<TRIPOS>MOLECULE
*****
 33 37 0 0 0
SMALL
GASTEIGER

@<TRIPOS>ATOM
      1 C          61.0287   89.5118   11.7824 C.3     1  UNL1        0.0813
      2 C          59.7893   90.3079   12.0660 C.3     1  UNL1        0.0127
      3 C          66.3575   93.2638   12.3073 C.ar    1  UNL1        0.1578
      4 C          66.9949   92.5012   13.4308 C.ar    1  UNL1        0.1356
      5 N          66.3115   91.2933   13.9999 N.ar    1  UNL1       -0.2407
      6 C          64.9908   90.8479   13.4455 C.ar    1  UNL1        0.0815
      7 C          64.3075   89.6400   14.0147 C.ar    1  UNL1        0.0188
      8 C          62.9868   89.1946   13.4603 C.ar    1  UNL1       -0.0023
      9 C          62.3494   89.9572   12.3368 C.ar    1  UNL1       -0.0152
     10 C          63.0327   91.1651   11.7677 C.ar    1  UNL1       -0.0023
     11 C          64.3535   91.6105   12.3221 C.ar    1  UNL1        0.0204
     12 C          65.0368   92.8184   11.7530 C.ar    1  UNL1        0.0400
     13 O          67.0409   94.4717   11.7382 O.3     1  UNL1       -0.4712
     14 C          66.6902   94.9528   10.3614 C.3     1  UNL1        0.2374
     15 C          67.5928   94.6397    9.2050 C.3     1  UNL1        0.1894
     16 C          68.7594   92.3251    9.3839 C.3     1  UNL1        0.1743
     17 O          68.8323   93.8229    9.4208 O.3     1  UNL1       -0.3471
     18 C          60.9472   88.2704   10.9445 C.ar    1  UNL1        0.1508
     19 N          61.3122   86.8837   11.3850 N.ar    1  UNL1       -0.1326
     20 N          61.0770   85.9540   10.2316 N.ar    1  UNL1       -0.1264
     21 C          60.5667   86.7660    9.0782 C.ar    1  UNL1        0.1978
     22 C          60.1647   86.3867    7.6838 C.ar    1  UNL1        0.1763
     23 F          60.2449   84.9551    7.2432 F       1  UNL1       -0.2009
     24 C          59.6824   87.4391    6.7299 C.ar    1  UNL1        0.0374
     25 C          59.6022   88.8708    7.1704 C.ar    1  UNL1        0.0571
     26 C          60.0042   89.2500    8.5649 C.ar    1  UNL1        0.0858
     27 N          60.4865   88.1976    9.5188 N.ar    1  UNL1       -0.2737
     28 C          59.1199   89.9231    6.2165 C.ar    1  UNL1        0.1781
     29 C          59.9839   90.7868    5.3461 C.ar    1  UNL1        0.0582
     30 C          59.0869   91.6939    4.5571 C.ar    1  UNL1        0.1011
     31 C          59.5303   92.7234    3.5603 C.3     1  UNL1        0.0557
     32 N          57.6685   91.3909    4.9399 N.ar    1  UNL1       -0.0813
     33 O          57.6889   90.2964    5.9654 O.2     1  UNL1       -0.3537
@<TRIPOS>BOND
     1    16    17    1
     2    17    15    1
     3    15    14    1
     4    14    13    1
     5    13     3    1
     6     3     4   ar
     7     4     5   ar
     8     5     6   ar
     9     6     7   ar
    10     7     8   ar
    11     8     9   ar
    12     9     1    1
    13     1     2    1
    14     1    18    1
    15    18    19   ar
    16    19    20   ar
    17    20    21   ar
    18    21    22   ar
    19    22    23    1
    20    22    24   ar
    21    24    25   ar
    22    25    28    1
    23    28    29   ar
    24    29    30   ar
    25    30    31    1
    26    30    32   ar
    27    32    33   ar
    28    25    26   ar
    29    26    27   ar
    30     9    10   ar
    31    10    11   ar
    32    11    12   ar
    33    12     3   ar
    34    11     6   ar
    35    27    18   ar
    36    27    21   ar
    37    33    28   ar
@<TRIPOS>MOLECULE
*****
 33 37 0 0 0
SMALL
GASTEIGER

@<TRIPOS>ATOM
      1 C          62.4653   85.5939    9.1024 C.3     1  UNL1        0.0813
      2 C          63.0321   85.2985    7.7454 C.3     1  UNL1        0.0127
      3 C          62.9310   84.0192   15.4312 C.ar    1  UNL1        0.1578
      4 C          63.8740   82.8665   15.2528 C.ar    1  UNL1        0.1356
      5 N          64.3466   82.4897   13.8799 N.ar    1  UNL1       -0.2407
      6 C          63.8763   83.2658   12.6856 C.ar    1  UNL1        0.0815
      7 C          64.3490   82.8890   11.3127 C.ar    1  UNL1        0.0188
      8 C          63.8786   83.6650   10.1184 C.ar    1  UNL1       -0.0023
      9 C          62.9356   84.8178   10.2968 C.ar    1  UNL1       -0.0152
     10 C          62.4629   85.1946   11.6696 C.ar    1  UNL1       -0.0023
     11 C          62.9333   84.4185   12.8640 C.ar    1  UNL1        0.0204
     12 C          62.4607   84.7952   14.2369 C.ar    1  UNL1        0.0400
     13 O          62.4583   84.3960   16.8041 O.3     1  UNL1       -0.4712
     14 C          62.0845   85.8171   17.1048 C.3     1  UNL1        0.2374
     15 C          63.1487   86.8710   17.1882 C.3     1  UNL1        0.1894
     16 C          63.0940   89.4464   16.8504 C.3     1  UNL1        0.1743
     17 O          63.0991   88.0608   16.2760 O.3     1  UNL1       -0.3471
     18 C          61.4281   86.6652    9.2650 C.ar    1  UNL1        0.1508
     19 N          60.0672   86.6779    8.6343 N.ar    1  UNL1       -0.1326
     20 N          59.3677   87.9326    9.0664 N.ar    1  UNL1       -0.1264
     21 C          60.2963   88.6952    9.9642 C.ar    1  UNL1        0.1978
     22 C          60.1469   90.0018   10.6857 C.ar    1  UNL1        0.1763
     23 F          58.8735   90.7850   10.5630 F       1  UNL1       -0.2009
     24 C          61.2708   90.5250   11.5301 C.ar    1  UNL1        0.0374
     25 C          62.5442   89.7418   11.6529 C.ar    1  UNL1        0.0571
     26 C          62.6936   88.4353   10.9314 C.ar    1  UNL1        0.0858
     27 N          61.5697   87.9120   10.0869 N.ar    1  UNL1       -0.2737
     28 C          63.6681   90.2651   12.4973 C.ar    1  UNL1        0.1781
     29 C          64.3686   91.5791   12.3168 C.ar    1  UNL1        0.0582
     30 C          65.4222   91.6923   13.3784 C.ar    1  UNL1        0.1011
     31 C          66.3605   92.8470   13.5699 C.3     1  UNL1        0.0557
     32 N          65.3729   90.4483   14.2151 N.ar    1  UNL1       -0.0813
     33 O          64.2888   89.5661   13.6705 O.2     1  UNL1       -0.3537
@<TRIPOS>BOND
     1    16    17    1
     2    17    15    1
     3    15    14    1
     4    14    13    1
     5    13     3    1
     6     3     4   ar
     7     4     5   ar
     8     5     6   ar
     9     6     7   ar
    10     7     8   ar
    11     8     9   ar
    12     9     1    1
    13     1     2    1
    14     1    18    1
    15    18    19   ar
    16    19    20   ar
    17    20    21   ar
    18    21    22   ar
    19    22    23    1
    20    22    24   ar
    21    24    25   ar
    22    25    28    1
    23    28    29   ar
    24    29    30   ar
    25    30    31    1
    26    30    32   ar
    27    32    33   ar
    28    25    26   ar
    29    26    27   ar
    30     9    10   ar
    31    10    11   ar
    32    11    12   ar
    33    12     3   ar
    34    11     6   ar
    35    27    18   ar
    36    27    21   ar
    37    33    28   ar
@<TRIPOS>MOLECULE
*****
 33 37 0 0 0
SMALL
GASTEIGER

@<TRIPOS>ATOM
      1 C          64.1440   91.0101   15.8809 C.3     1  UNL1        0.0813
      2 C          63.9009   91.9136   17.0534 C.3     1  UNL1        0.0127
      3 C          64.1705   84.7317   14.0559 C.ar    1  UNL1        0.1578
      4 C          63.4166   84.2049   15.2408 C.ar    1  UNL1        0.1356
      5 N          62.9589   85.1445   16.3168 N.ar    1  UNL1       -0.2407
      6 C          63.2552   86.6109   16.2078 C.ar    1  UNL1        0.0815
      7 C          62.7975   87.5505   17.2838 C.ar    1  UNL1        0.0188
      8 C          63.0938   89.0169   17.1748 C.ar    1  UNL1       -0.0023
      9 C          63.8477   89.5438   15.9898 C.ar    1  UNL1       -0.0152
     10 C          64.3054   88.6041   14.9139 C.ar    1  UNL1       -0.0023
     11 C          64.0091   87.1377   15.0229 C.ar    1  UNL1        0.0204
     12 C          64.4667   86.1981   13.9469 C.ar    1  UNL1        0.0400
     13 O          64.6281   83.7921   12.9799 O.3     1  UNL1       -0.4712
     14 C          63.7480   82.6550   12.5530 C.3     1  UNL1        0.2374
     15 C          63.8972   81.3084   13.1967 C.3     1  UNL1        0.1894
     16 C          61.4666   81.1989   14.1079 C.3     1  UNL1        0.1743
     17 O          62.9228   80.8679   14.2487 O.3     1  UNL1       -0.3471
     18 C          64.6833   91.5732   14.5994 C.ar    1  UNL1        0.1508
     19 N          65.8392   92.5204   14.4700 N.ar    1  UNL1       -0.1326
     20 N          66.0317   92.8204   13.0130 N.ar    1  UNL1       -0.1264
     21 C          64.9948   92.0587   12.2419 C.ar    1  UNL1        0.1978
     22 C          64.7017   91.9674   10.7736 C.ar    1  UNL1        0.1763
     23 F          65.5350   92.7382    9.7931 F       1  UNL1       -0.2009
     24 C          63.5753   91.1052   10.2859 C.ar    1  UNL1        0.0374
     25 C          62.7419   90.3343   11.2663 C.ar    1  UNL1        0.0571
     26 C          63.0350   90.4256   12.7346 C.ar    1  UNL1        0.0858
     27 N          64.1614   91.2878   13.2224 N.ar    1  UNL1       -0.2737
     28 C          61.6156   89.4722   10.7785 C.ar    1  UNL1        0.1781
     29 C          61.2176   89.2682    9.3467 C.ar    1  UNL1        0.0582
     30 C          60.0455   88.3326    9.3202 C.ar    1  UNL1        0.1011
     31 C          59.3261   87.8551    8.0936 C.3     1  UNL1        0.0557
     32 N          59.7190   87.9582   10.7356 N.ar    1  UNL1       -0.0813
     33 O          60.6894   88.6625   11.6369 O.2     1  UNL1       -0.3537
@<TRIPOS>BOND
     1    16    17    1
     2    17    15    1
     3    15    14    1
     4    14    13    1
     5    13     3    1
     6     3     4   ar
     7     4     5   ar
     8     5     6   ar
     9     6     7   ar
    10     7     8   ar
    11     8     9   ar
    12     9     1    1
    13     1     2    1
    14     1    18    1
    15    18    19   ar
    16    19    20   ar
    17    20    21   ar
    18    21    22   ar
    19    22    23    1
    20    22    24   ar
    21    24    25   ar
    22    25    28    1
    23    28    29   ar
    24    29    30   ar
    25    30    31    1
    26    30    32   ar
    27    32    33   ar
    28    25    26   ar
    29    26    27   ar
    30     9    10   ar
    31    10    11   ar
    32    11    12   ar
    33    12     3   ar
    34    11     6   ar
    35    27    18   ar
    36    27    21   ar
    37    33    28   ar
@<TRIPOS>MOLECULE
*****
 33 37 0 0 0
SMALL
GASTEIGER

@<TRIPOS>ATOM
      1 C          61.8456   88.5972   10.0064 C.3     1  UNL1        0.0813
      2 C          60.5708   89.1347    9.4268 C.3     1  UNL1        0.0127
      3 C          65.7349   93.6139   11.5737 C.ar    1  UNL1        0.1578
      4 C          65.8910   93.2640   13.0240 C.ar    1  UNL1        0.1356
      5 N          65.2068   92.0508   13.5806 N.ar    1  UNL1       -0.2407
      6 C          64.3665   91.1874   12.6871 C.ar    1  UNL1        0.0815
      7 C          63.6823   89.9741   13.2438 C.ar    1  UNL1        0.0188
      8 C          62.8420   89.1107   12.3502 C.ar    1  UNL1       -0.0023
      9 C          62.6859   89.4606   10.8999 C.ar    1  UNL1       -0.0152
     10 C          63.3701   90.6738   10.3432 C.ar    1  UNL1       -0.0023
     11 C          64.2104   91.5373   11.2369 C.ar    1  UNL1        0.0204
     12 C          64.8946   92.7505   10.6802 C.ar    1  UNL1        0.0400
     13 O          66.4191   94.8272   11.0171 O.3     1  UNL1       -0.4712
     14 C          66.5151   95.0191    9.5325 C.3     1  UNL1        0.2374
     15 C          67.7579   94.6051    8.8016 C.3     1  UNL1        0.1894
     16 C          68.7183   92.3142    9.5629 C.3     1  UNL1        0.1743
     17 O          68.8147   93.8102    9.5096 O.3     1  UNL1       -0.3471
     18 C          62.2802   87.1963    9.6924 C.ar    1  UNL1        0.1508
     19 N          62.5028   86.6284    8.3220 N.ar    1  UNL1       -0.1326
     20 N          62.9286   85.1984    8.4763 N.ar    1  UNL1       -0.1264
     21 C          62.9691   84.8824    9.9421 C.ar    1  UNL1        0.1978
     22 C          63.3191   83.6299   10.6896 C.ar    1  UNL1        0.1763
     23 F          63.7198   82.3952    9.9380 F       1  UNL1       -0.2009
     24 C          63.2683   83.6122   12.1886 C.ar    1  UNL1        0.0374
     25 C          62.8676   84.8469   12.9403 C.ar    1  UNL1        0.0571
     26 C          62.5176   86.0994   12.1928 C.ar    1  UNL1        0.0858
     27 N          62.5683   86.1172   10.6937 N.ar    1  UNL1       -0.2737
     28 C          62.8169   84.8291   14.4393 C.ar    1  UNL1        0.1781
     29 C          62.9998   86.0131   15.3418 C.ar    1  UNL1        0.0582
     30 C          62.8703   85.5398   16.7593 C.ar    1  UNL1        0.1011
     31 C          62.9838   86.3932   17.9877 C.3     1  UNL1        0.0557
     32 N          62.6074   84.0632   16.7328 N.ar    1  UNL1       -0.0813
     33 O          62.5744   83.6239   15.2989 O.2     1  UNL1       -0.3537
@<TRIPOS>BOND
     1    16    17    1
     2    17    15    1
     3    15    14    1
     4    14    13    1
     5    13     3    1
     6     3     4   ar
     7     4     5   ar
     8     5     6   ar
     9     6     7   ar
    10     7     8   ar
    11     8     9   ar
    12     9     1    1
    13     1     2    1
    14     1    18    1
    15    18    19   ar
    16    19    20   ar
    17    20    21   ar
    18    21    22   ar
    19    22    23    1
    20    22    24   ar
    21    24    25   ar
    22    25    28    1
    23    28    29   ar
    24    29    30   ar
    25    30    31    1
    26    30    32   ar
    27    32    33   ar
    28    25    26   ar
    29    26    27   ar
    30     9    10   ar
    31    10    11   ar
    32    11    12   ar
    33    12     3   ar
    34    11     6   ar
    35    27    18   ar
    36    27    21   ar
    37    33    28   ar
@<TRIPOS>MOLECULE
*****
 33 37 0 0 0
SMALL
GASTEIGER

@<TRIPOS>ATOM
      1 C          61.7870   88.8344    9.8137 C.3     1  UNL1        0.0813
      2 C          60.4948   89.2112    9.1517 C.3     1  UNL1        0.0127
      3 C          63.2771   83.0951   12.5688 C.ar    1  UNL1        0.1578
      4 C          63.6079   82.3740   11.2958 C.ar    1  UNL1        0.1356
      5 N          63.5084   83.0891    9.9811 N.ar    1  UNL1       -0.2407
      6 C          63.0780   84.5254    9.9392 C.ar    1  UNL1        0.0815
      7 C          62.9785   85.2406    8.6244 C.ar    1  UNL1        0.0188
      8 C          62.5482   86.6769    8.5826 C.ar    1  UNL1       -0.0023
      9 C          62.2174   87.3981    9.8556 C.ar    1  UNL1       -0.0152
     10 C          62.3169   86.6830   11.1704 C.ar    1  UNL1       -0.0023
     11 C          62.7473   85.2466   11.2122 C.ar    1  UNL1        0.0204
     12 C          62.8468   84.5314   12.5269 C.ar    1  UNL1        0.0400
     13 O          63.3767   82.3800   13.8836 O.3     1  UNL1       -0.4712
     14 C          62.1343   81.8919   14.5678 C.3     1  UNL1        0.2374
     15 C          61.1615   81.0237   13.8262 C.3     1  UNL1        0.1894
     16 C          58.6797   80.3545   14.2043 C.3     1  UNL1        0.1743
     17 O          60.1273   80.2421   14.5809 O.3     1  UNL1       -0.3471
     18 C          62.6489   89.8940   10.4339 C.ar    1  UNL1        0.1508
     19 N          63.1126   91.1551    9.7672 N.ar    1  UNL1       -0.1326
     20 N          63.9487   91.9190   10.7509 N.ar    1  UNL1       -0.1264
     21 C          64.0017   91.1299   12.0254 C.ar    1  UNL1        0.1978
     22 C          64.6777   91.3893   13.3391 C.ar    1  UNL1        0.1763
     23 F          65.4810   92.6408   13.5350 F       1  UNL1       -0.2009
     24 C          64.5503   90.3971   14.4569 C.ar    1  UNL1        0.0374
     25 C          63.7470   89.1456   14.2610 C.ar    1  UNL1        0.0571
     26 C          63.0711   88.8862   12.9473 C.ar    1  UNL1        0.0858
     27 N          63.1984   89.8784   11.8295 N.ar    1  UNL1       -0.2737
     28 C          63.6197   88.1535   15.3788 C.ar    1  UNL1        0.1781
     29 C          63.0615   88.4295   16.7434 C.ar    1  UNL1        0.0582
     30 C          63.1251   87.1578   17.5362 C.ar    1  UNL1        0.1011
     31 C          62.6709   86.9793   18.9546 C.3     1  UNL1        0.0557
     32 N          63.7227   86.0956   16.6616 N.ar    1  UNL1       -0.0813
     33 O          64.0284   86.7110   15.3282 O.2     1  UNL1       -0.3537
@<TRIPOS>BOND
     1    16    17    1
     2    17    15    1
     3    15    14    1
     4    14    13    1
     5    13     3    1
     6     3     4   ar
     7     4     5   ar
     8     5     6   ar
     9     6     7   ar
    10     7     8   ar
    11     8     9   ar
    12     9     1    1
    13     1     2    1
    14     1    18    1
    15    18    19   ar
    16    19    20   ar
    17    20    21   ar
    18    21    22   ar
    19    22    23    1
    20    22    24   ar
    21    24    25   ar
    22    25    28    1
    23    28    29   ar
    24    29    30   ar
    25    30    31    1
    26    30    32   ar
    27    32    33   ar
    28    25    26   ar
    29    26    27   ar
    30     9    10   ar
    31    10    11   ar
    32    11    12   ar
    33    12     3   ar
    34    11     6   ar
    35    27    18   ar
    36    27    21   ar
    37    33    28   ar
@<TRIPOS>MOLECULE
*****
 33 37 0 0 0
SMALL
GASTEIGER

@<TRIPOS>ATOM
      1 C          63.5497   90.1077   12.6733 C.3     1  UNL1        0.0813
      2 C          64.4133   91.2257   12.1688 C.3     1  UNL1        0.0127
      3 C          59.5367   88.6651    7.7171 C.ar    1  UNL1        0.1578
      4 C          59.7274   87.1782    7.7685 C.ar    1  UNL1        0.1356
      5 N          60.6445   86.5745    8.7906 N.ar    1  UNL1       -0.2407
      6 C          61.3708   87.4578    9.7612 C.ar    1  UNL1        0.0815
      7 C          62.2878   86.8542   10.7833 C.ar    1  UNL1        0.0188
      8 C          63.0141   87.7374   11.7540 C.ar    1  UNL1       -0.0023
      9 C          62.8234   89.2244   11.7026 C.ar    1  UNL1       -0.0152
     10 C          61.9064   89.8281   10.6805 C.ar    1  UNL1       -0.0023
     11 C          61.1801   88.9447    9.7098 C.ar    1  UNL1        0.0204
     12 C          60.2630   89.5483    8.6877 C.ar    1  UNL1        0.0400
     13 O          58.6197   89.2687    6.6950 O.3     1  UNL1       -0.4712
     14 C          59.1164   90.3592    5.7927 C.3     1  UNL1        0.2374
     15 C          58.1479   91.3335    5.1902 C.3     1  UNL1        0.1894
     16 C          60.0149   92.5177    3.8256 C.3     1  UNL1        0.1743
     17 O          58.6557   92.5412    4.4597 O.3     1  UNL1       -0.3471
     18 C          63.4126   89.8730   14.1485 C.ar    1  UNL1        0.1508
     19 N          63.2300   90.9307   15.1963 N.ar    1  UNL1       -0.1326
     20 N          63.1385   90.2508   16.5302 N.ar    1  UNL1       -0.1264
     21 C          63.2645   88.7729   16.3069 C.ar    1  UNL1        0.1978
     22 C          63.2469   87.6096   17.2536 C.ar    1  UNL1        0.1763
     23 F          63.0775   87.8431   18.7256 F       1  UNL1       -0.2009
     24 C          63.3987   86.2128   16.7284 C.ar    1  UNL1        0.0374
     25 C          63.5681   85.9792   15.2563 C.ar    1  UNL1        0.0571
     26 C          63.5857   87.1426   14.3096 C.ar    1  UNL1        0.0858
     27 N          63.4339   88.5394   14.8348 N.ar    1  UNL1       -0.2737
     28 C          63.7199   84.5824   14.7312 C.ar    1  UNL1        0.1781
     29 C          63.9508   84.1989   13.2996 C.ar    1  UNL1        0.0582
     30 C          64.0410   82.7033   13.2291 C.ar    1  UNL1        0.1011
     31 C          64.2668   81.8911   11.9884 C.3     1  UNL1        0.0557
     32 N          63.8658   82.1624   14.6172 N.ar    1  UNL1       -0.0813
     33 O          63.6673   83.3238   15.5456 O.2     1  UNL1       -0.3537
@<TRIPOS>BOND
     1    16    17    1
     2    17    15    1
     3    15    14    1
     4    14    13    1
     5    13     3    1
     6     3     4   ar
     7     4     5   ar
     8     5     6   ar
     9     6     7   ar
    10     7     8   ar
    11     8     9   ar
    12     9     1    1
    13     1     2    1
    14     1    18    1
    15    18    19   ar
    16    19    20   ar
    17    20    21   ar
    18    21    22   ar
    19    22    23    1
    20    22    24   ar
    21    24    25   ar
    22    25    28    1
    23    28    29   ar
    24    29    30   ar
    25    30    31    1
    26    30    32   ar
    27    32    33   ar
    28    25    26   ar
    29    26    27   ar
    30     9    10   ar
    31    10    11   ar
    32    11    12   ar
    33    12     3   ar
    34    11     6   ar
    35    27    18   ar
    36    27    21   ar
    37    33    28   ar
@<TRIPOS>MOLECULE
*****
 33 37 0 0 0
SMALL
GASTEIGER

@<TRIPOS>ATOM
      1 C          63.9442   83.4095   13.0639 C.3     1  UNL1        0.0813
      2 C          64.9150   82.2722   12.9450 C.3     1  UNL1        0.0127
      3 C          60.4293   87.6948    9.5953 C.ar    1  UNL1        0.1578
      4 C          60.8212   87.1826    8.2410 C.ar    1  UNL1        0.1356
      5 N          61.7594   86.0182    8.1222 N.ar    1  UNL1       -0.2407
      6 C          62.3056   85.3660    9.3576 C.ar    1  UNL1        0.0815
      7 C          63.2437   84.2017    9.2388 C.ar    1  UNL1        0.0188
      8 C          63.7900   83.5495   10.4742 C.ar    1  UNL1       -0.0023
      9 C          63.3980   84.0617   11.8285 C.ar    1  UNL1       -0.0152
     10 C          62.4599   85.2261   11.9474 C.ar    1  UNL1       -0.0023
     11 C          61.9136   85.8782   10.7119 C.ar    1  UNL1        0.0204
     12 C          60.9755   87.0426   10.8307 C.ar    1  UNL1        0.0400
     13 O          59.4911   88.8591    9.7141 O.3     1  UNL1       -0.4712
     14 C          60.0010   90.1877   10.1883 C.3     1  UNL1        0.2374
     15 C          59.9862   90.5180   11.6514 C.3     1  UNL1        0.1894
     16 C          58.3183   88.9816   12.9194 C.3     1  UNL1        0.1743
     17 O          59.7229   89.4401   12.6609 O.3     1  UNL1       -0.3471
     18 C          63.5198   83.8947   14.4184 C.ar    1  UNL1        0.1508
     19 N          62.9806   83.0445   15.5304 N.ar    1  UNL1       -0.1326
     20 N          62.6875   83.9396   16.6979 N.ar    1  UNL1       -0.1264
     21 C          63.0455   85.3429   16.3074 C.ar    1  UNL1        0.1978
     22 C          62.9696   86.6425   17.0526 C.ar    1  UNL1        0.1763
     23 F          62.4553   86.6702   18.4614 F       1  UNL1       -0.2009
     24 C          63.4080   87.9143   16.3891 C.ar    1  UNL1        0.0374
     25 C          63.9224   87.8866   14.9802 C.ar    1  UNL1        0.0571
     26 C          63.9983   86.5870   14.2350 C.ar    1  UNL1        0.0858
     27 N          63.5599   85.3152   14.8986 N.ar    1  UNL1       -0.2737
     28 C          64.3608   89.1584   14.3168 C.ar    1  UNL1        0.1781
     29 C          63.8292   89.7084   13.0265 C.ar    1  UNL1        0.0582
     30 C          64.5477   90.9934   12.7394 C.ar    1  UNL1        0.1011
     31 C          64.3290   91.8789   11.5485 C.3     1  UNL1        0.0557
     32 N          65.5233   91.2377   13.8523 N.ar    1  UNL1       -0.0813
     33 O          65.4078   90.1036   14.8272 O.2     1  UNL1       -0.3537
@<TRIPOS>BOND
     1    16    17    1
     2    17    15    1
     3    15    14    1
     4    14    13    1
     5    13     3    1
     6     3     4   ar
     7     4     5   ar
     8     5     6   ar
     9     6     7   ar
    10     7     8   ar
    11     8     9   ar
    12     9     1    1
    13     1     2    1
    14     1    18    1
    15    18    19   ar
    16    19    20   ar
    17    20    21   ar
    18    21    22   ar
    19    22    23    1
    20    22    24   ar
    21    24    25   ar
    22    25    28    1
    23    28    29   ar
    24    29    30   ar
    25    30    31    1
    26    30    32   ar
    27    32    33   ar
    28    25    26   ar
    29    26    27   ar
    30     9    10   ar
    31    10    11   ar
    32    11    12   ar
    33    12     3   ar
    34    11     6   ar
    35    27    18   ar
    36    27    21   ar
    37    33    28   ar
@<TRIPOS>MOLECULE
*****
 33 37 0 0 0
SMALL
GASTEIGER

@<TRIPOS>ATOM
      1 C          64.4709   90.2675   13.8064 C.3     1  UNL1        0.0813
      2 C          65.8475   90.8539   13.7005 C.3     1  UNL1        0.0127
      3 C          60.7998   87.2901    9.2888 C.ar    1  UNL1        0.1578
      4 C          60.4676   88.5210    8.4986 C.ar    1  UNL1        0.1356
      5 N          61.0025   89.8550    8.9279 N.ar    1  UNL1       -0.2407
      6 C          61.8696   89.9581   10.1475 C.ar    1  UNL1        0.0815
      7 C          62.4044   91.2921   10.5769 C.ar    1  UNL1        0.0188
      8 C          63.2715   91.3952   11.7965 C.ar    1  UNL1       -0.0023
      9 C          63.6038   90.1643   12.5868 C.ar    1  UNL1       -0.0152
     10 C          63.0689   88.8303   12.1575 C.ar    1  UNL1       -0.0023
     11 C          62.2018   88.7272   10.9378 C.ar    1  UNL1        0.0204
     12 C          61.6669   87.3932   10.5084 C.ar    1  UNL1        0.0400
     13 O          60.2649   85.9561    8.8595 O.3     1  UNL1       -0.4712
     14 C          60.4374   85.5001    7.4410 C.3     1  UNL1        0.2374
     15 C          61.7314   84.8793    7.0048 C.3     1  UNL1        0.1894
     16 C          63.3773   84.4921    8.9774 C.3     1  UNL1        0.1743
     17 O          63.0053   85.2201    7.7198 O.3     1  UNL1       -0.3471
     18 C          63.9614   89.7842   15.1319 C.ar    1  UNL1        0.1508
     19 N          63.5785   90.6475   16.2972 N.ar    1  UNL1       -0.1326
     20 N          63.1259   89.7497   17.4104 N.ar    1  UNL1       -0.1264
     21 C          63.2291   88.3314   16.9329 C.ar    1  UNL1        0.1978
     22 C          62.9195   87.0233   17.5985 C.ar    1  UNL1        0.1763
     23 F          62.4031   87.0020   19.0067 F       1  UNL1       -0.2009
     24 C          63.1264   85.7366   16.8559 C.ar    1  UNL1        0.0374
     25 C          63.6428   85.7578   15.4477 C.ar    1  UNL1        0.0571
     26 C          63.9523   87.0659   14.7822 C.ar    1  UNL1        0.0858
     27 N          63.7454   88.3528   15.5248 N.ar    1  UNL1       -0.2737
     28 C          63.8496   84.4710   14.7052 C.ar    1  UNL1        0.1781
     29 C          64.0645   84.3306   13.2274 C.ar    1  UNL1        0.0582
     30 C          64.2255   82.8715   12.9191 C.ar    1  UNL1        0.1011
     31 C          64.4607   82.2778   11.5617 C.3     1  UNL1        0.0557
     32 N          64.1101   82.1101   14.2064 N.ar    1  UNL1       -0.0813
     33 O          63.8777   83.0987   15.3103 O.2     1  UNL1       -0.3537
@<TRIPOS>BOND
     1    16    17    1
     2    17    15    1
     3    15    14    1
     4    14    13    1
     5    13     3    1
     6     3     4   ar
     7     4     5   ar
     8     5     6   ar
     9     6     7   ar
    10     7     8   ar
    11     8     9   ar
    12     9     1    1
    13     1     2    1
    14     1    18    1
    15    18    19   ar
    16    19    20   ar
    17    20    21   ar
    18    21    22   ar
    19    22    23    1
    20    22    24   ar
    21    24    25   ar
    22    25    28    1
    23    28    29   ar
    24    29    30   ar
    25    30    31    1
    26    30    32   ar
    27    32    33   ar
    28    25    26   ar
    29    26    27   ar
    30     9    10   ar
    31    10    11   ar
    32    11    12   ar
    33    12     3   ar
    34    11     6   ar
    35    27    18   ar
    36    27    21   ar
    37    33    28   ar
