@<TRIPOS>MOLECULE
*****
 35 39 0 0 0
SMALL
GASTEIGER

@<TRIPOS>ATOM
      1 C          59.1449   87.0718    8.0261 C.3     1  UNL1        0.0339
      2 C          59.9075   87.7315    9.1365 C.3     1  UNL1        0.1351
      3 C          60.9262   86.9514    9.9134 C.3     1  UNL1        0.1231
      4 N          61.6889   87.6111   11.0239 N.am    1  UNL1       -0.2724
      5 C          62.7077   86.8309   11.8008 C.2     1  UNL1        0.2506
      6 O          63.4704   87.4907   12.9112 O.2     1  UNL1       -0.2699
      7 C          61.4329   89.0510   11.3574 C.3     1  UNL1        0.1097
      8 C          60.4142   89.8311   10.5805 C.3     1  UNL1        0.1621
      9 O          59.6515   89.1714    9.4700 O.3     1  UNL1       -0.3527
     10 C          62.9637   85.3911   11.4672 C.ar    1  UNL1        0.0730
     11 C          63.0272   84.9531   10.0340 C.ar    1  UNL1        0.0070
     12 C          63.2832   83.5131    9.7005 C.ar    1  UNL1        0.0116
     13 C          63.4757   82.5113   10.8002 C.ar    1  UNL1        0.0592
     14 CL         63.7317   81.0715   10.4667 Cl      1  UNL1       -0.0822
     15 C          63.4121   82.9494   12.2334 C.ar    1  UNL1        0.0324
     16 C          63.1561   84.3892   12.5670 C.ar    1  UNL1        0.1081
     17 N          63.0925   84.8273   14.0002 N.ar    1  UNL1       -0.1476
     18 N          64.2243   85.4068   14.7960 N.ar    1  UNL1       -0.1447
     19 C          63.7173   85.7004   16.1769 C.ar    1  UNL1        0.1446
     20 C          62.2722   85.3023   16.2345 C.ar    1  UNL1        0.1446
     21 N          61.8861   84.7627   14.8892 N.ar    1  UNL1       -0.1447
     22 C          62.1956   89.7107   12.4678 C.3     1  UNL1        0.0510
     23 C          63.3437   90.6224   12.1507 C.ar    1  UNL1        0.0071
     24 C          64.3460   90.9639   13.2133 C.ar    1  UNL1        0.0011
     25 C          65.4940   91.8756   12.8962 C.ar    1  UNL1        0.0356
     26 C          65.6399   92.4460   11.5165 C.ar    1  UNL1        0.0053
     27 C          64.6377   92.1046   10.4540 C.ar    1  UNL1        0.0294
     28 C          63.4895   91.1928   10.7711 C.ar    1  UNL1        0.1362
     29 F          62.4873   90.8515    9.7086 F       1  UNL1       -0.2045
     30 C          66.4963   92.2170   13.9587 C.ar    1  UNL1        0.1622
     31 N          67.9514   92.3243   13.6105 N.ar    1  UNL1       -0.2250
     32 C          68.9537   92.6657   14.6730 C.ar    1  UNL1        0.1022
     33 C          68.5008   92.8998   16.0837 C.ar    1  UNL1        0.0414
     34 C          67.0458   92.7925   16.4319 C.ar    1  UNL1        0.1022
     35 N          66.0435   92.4512   15.3694 N.ar    1  UNL1       -0.2250
@<TRIPOS>BOND
     1     2     1    1
     2     2     3    1
     3     3     4    1
     4     4     5   am
     5     5     6    2
     6     5    10    1
     7    10    11   ar
     8    11    12   ar
     9    12    13   ar
    10    13    14    1
    11    13    15   ar
    12    15    16   ar
    13    16    17    1
    14    17    18   ar
    15    18    19   ar
    16    19    20   ar
    17    20    21   ar
    18     4     7    1
    19     7    22    1
    20    22    23    1
    21    23    24   ar
    22    24    25   ar
    23    25    30    1
    24    30    31   ar
    25    31    32   ar
    26    32    33   ar
    27    33    34   ar
    28    34    35   ar
    29    25    26   ar
    30    26    27   ar
    31    27    28   ar
    32    28    29    1
    33     7     8    1
    34     8     9    1
    35     9     2    1
    36    16    10   ar
    37    21    17   ar
    38    28    23   ar
    39    35    30   ar
@<TRIPOS>MOLECULE
*****
 35 39 0 0 0
SMALL
GASTEIGER

@<TRIPOS>ATOM
      1 C          60.2580   88.4725    8.0340 C.3     1  UNL1        0.0339
      2 C          60.8837   88.8608    9.3408 C.3     1  UNL1        0.1351
      3 C          61.6100   87.8346   10.1589 C.3     1  UNL1        0.1231
      4 N          62.2357   88.2229   11.4657 N.am    1  UNL1       -0.2724
      5 C          62.9620   87.1966   12.2838 C.2     1  UNL1        0.2506
      6 O          63.5877   87.5849   13.5906 O.2     1  UNL1       -0.2699
      7 C          62.1351   89.6375   11.9544 C.3     1  UNL1        0.1097
      8 C          61.4088   90.6637   11.1363 C.3     1  UNL1        0.1621
      9 O          60.7831   90.2753    9.8295 O.3     1  UNL1       -0.3527
     10 C          63.0626   85.7820   11.7951 C.ar    1  UNL1        0.0730
     11 C          63.0758   85.4964   10.3226 C.ar    1  UNL1        0.0070
     12 C          63.1764   84.0818    9.8339 C.ar    1  UNL1        0.0116
     13 C          63.2638   82.9529   10.8177 C.ar    1  UNL1        0.0592
     14 CL         63.3644   81.5383   10.3290 Cl      1  UNL1       -0.0822
     15 C          63.2506   83.2385   12.2902 C.ar    1  UNL1        0.0324
     16 C          63.1500   84.6530   12.7789 C.ar    1  UNL1        0.1081
     17 N          63.1368   84.9387   14.2514 N.ar    1  UNL1       -0.1476
     18 N          64.3152   85.3603   15.0784 N.ar    1  UNL1       -0.1447
     19 C          63.8495   85.5351   16.4935 C.ar    1  UNL1        0.1446
     20 C          62.3834   85.2215   16.5412 C.ar    1  UNL1        0.1446
     21 N          61.9430   84.8529   15.1555 N.ar    1  UNL1       -0.1447
     22 C          62.7607   90.0258   13.2612 C.3     1  UNL1        0.0510
     23 C          64.0917   90.7173   13.2794 C.ar    1  UNL1        0.0071
     24 C          64.5030   91.5828   12.1253 C.ar    1  UNL1        0.0011
     25 C          65.8340   92.2743   12.1434 C.ar    1  UNL1        0.0356
     26 C          66.7536   92.1004   13.3156 C.ar    1  UNL1        0.0053
     27 C          66.3423   91.2349   14.4696 C.ar    1  UNL1        0.0294
     28 C          65.0113   90.5433   14.4515 C.ar    1  UNL1        0.1362
     29 F          64.6001   89.6779   15.6055 F       1  UNL1       -0.2045
     30 C          66.2453   93.1398   10.9894 C.ar    1  UNL1        0.1622
     31 N          67.3093   92.6706   10.0419 N.ar    1  UNL1       -0.2250
     32 C          67.7207   93.5360    8.8879 C.ar    1  UNL1        0.1022
     33 C          67.0680   94.8707    8.6814 C.ar    1  UNL1        0.0414
     34 C          66.0040   95.3399    9.6288 C.ar    1  UNL1        0.1022
     35 N          65.5927   94.4745   10.7829 N.ar    1  UNL1       -0.2250
@<TRIPOS>BOND
     1     2     1    1
     2     2     3    1
     3     3     4    1
     4     4     5   am
     5     5     6    2
     6     5    10    1
     7    10    11   ar
     8    11    12   ar
     9    12    13   ar
    10    13    14    1
    11    13    15   ar
    12    15    16   ar
    13    16    17    1
    14    17    18   ar
    15    18    19   ar
    16    19    20   ar
    17    20    21   ar
    18     4     7    1
    19     7    22    1
    20    22    23    1
    21    23    24   ar
    22    24    25   ar
    23    25    30    1
    24    30    31   ar
    25    31    32   ar
    26    32    33   ar
    27    33    34   ar
    28    34    35   ar
    29    25    26   ar
    30    26    27   ar
    31    27    28   ar
    32    28    29    1
    33     7     8    1
    34     8     9    1
    35     9     2    1
    36    16    10   ar
    37    21    17   ar
    38    28    23   ar
    39    35    30   ar
@<TRIPOS>MOLECULE
*****
 35 39 0 0 0
SMALL
GASTEIGER

@<TRIPOS>ATOM
      1 C          64.4075   84.3484   13.8838 C.3     1  UNL1        0.0339
      2 C          64.2348   85.8383   13.8978 C.3     1  UNL1        0.1351
      3 C          63.5048   86.5193   12.7783 C.3     1  UNL1        0.1231
      4 N          63.3321   88.0092   12.7924 N.am    1  UNL1       -0.2724
      5 C          62.6021   88.6902   11.6728 C.2     1  UNL1        0.2506
      6 O          62.4293   90.1802   11.6868 O.2     1  UNL1       -0.2699
      7 C          63.8893   88.8182   13.9259 C.3     1  UNL1        0.1097
      8 C          64.6192   88.1372   15.0455 C.3     1  UNL1        0.1621
      9 O          64.7920   86.6473   15.0314 O.3     1  UNL1       -0.3527
     10 C          62.0449   87.8812   10.5392 C.ar    1  UNL1        0.0730
     11 C          62.9251   86.9144    9.8041 C.ar    1  UNL1        0.0070
     12 C          62.3678   86.1054    8.6704 C.ar    1  UNL1        0.0116
     13 C          60.9304   86.2633    8.2720 C.ar    1  UNL1        0.0592
     14 CL         60.3732   85.4543    7.1384 Cl      1  UNL1       -0.0822
     15 C          60.0502   87.2301    9.0071 C.ar    1  UNL1        0.0324
     16 C          60.6074   88.0391   10.1407 C.ar    1  UNL1        0.1081
     17 N          59.7271   89.0060   10.8758 N.ar    1  UNL1       -0.1476
     18 N          59.5209   90.4505   10.5279 N.ar    1  UNL1       -0.1447
     19 C          58.5649   91.0354   11.5250 C.ar    1  UNL1        0.1446
     20 C          58.1803   89.9524   12.4890 C.ar    1  UNL1        0.1446
     21 N          58.8987   88.6982   12.0877 N.ar    1  UNL1       -0.1447
     22 C          63.7165   90.3082   13.9400 C.3     1  UNL1        0.0510
     23 C          64.9198   91.2031   13.9046 C.ar    1  UNL1        0.0071
     24 C          65.4929   91.6376   12.5882 C.ar    1  UNL1        0.0011
     25 C          66.6962   92.5325   12.5528 C.ar    1  UNL1        0.0356
     26 C          67.3263   92.9929   13.8338 C.ar    1  UNL1        0.0053
     27 C          66.7532   92.5585   15.1501 C.ar    1  UNL1        0.0294
     28 C          65.5499   91.6635   15.1856 C.ar    1  UNL1        0.1362
     29 F          64.9769   91.2291   16.5019 F       1  UNL1       -0.2045
     30 C          67.2693   92.9669   11.2365 C.ar    1  UNL1        0.1622
     31 N          66.9456   94.3256   10.6893 N.ar    1  UNL1       -0.2250
     32 C          67.5187   94.7601    9.3730 C.ar    1  UNL1        0.1022
     33 C          68.4155   93.8360    8.6038 C.ar    1  UNL1        0.0414
     34 C          68.7392   92.4773    9.1510 C.ar    1  UNL1        0.1022
     35 N          68.1661   92.0428   10.4673 N.ar    1  UNL1       -0.2250
@<TRIPOS>BOND
     1     2     1    1
     2     2     3    1
     3     3     4    1
     4     4     5   am
     5     5     6    2
     6     5    10    1
     7    10    11   ar
     8    11    12   ar
     9    12    13   ar
    10    13    14    1
    11    13    15   ar
    12    15    16   ar
    13    16    17    1
    14    17    18   ar
    15    18    19   ar
    16    19    20   ar
    17    20    21   ar
    18     4     7    1
    19     7    22    1
    20    22    23    1
    21    23    24   ar
    22    24    25   ar
    23    25    30    1
    24    30    31   ar
    25    31    32   ar
    26    32    33   ar
    27    33    34   ar
    28    34    35   ar
    29    25    26   ar
    30    26    27   ar
    31    27    28   ar
    32    28    29    1
    33     7     8    1
    34     8     9    1
    35     9     2    1
    36    16    10   ar
    37    21    17   ar
    38    28    23   ar
    39    35    30   ar
@<TRIPOS>MOLECULE
*****
 35 39 0 0 0
SMALL
GASTEIGER

@<TRIPOS>ATOM
      1 C          61.2232   90.2904    9.2928 C.3     1  UNL1        0.0339
      2 C          61.9855   89.8603   10.5109 C.3     1  UNL1        0.1351
      3 C          63.0980   90.7158   11.0404 C.3     1  UNL1        0.1231
      4 N          63.8603   90.2857   12.2585 N.am    1  UNL1       -0.2724
      5 C          64.9728   91.1413   12.7879 C.2     1  UNL1        0.2506
      6 O          65.7352   90.7111   14.0061 O.2     1  UNL1       -0.2699
      7 C          63.5101   89.0000   12.9472 C.3     1  UNL1        0.1097
      8 C          62.3976   88.1444   12.4178 C.3     1  UNL1        0.1621
      9 O          61.6353   88.5746   11.1996 O.3     1  UNL1       -0.3527
     10 C          65.3230   92.4269   12.0992 C.ar    1  UNL1        0.0730
     11 C          64.7695   92.7230   10.7369 C.ar    1  UNL1        0.0070
     12 C          65.1198   94.0087   10.0482 C.ar    1  UNL1        0.0116
     13 C          66.0235   94.9984   10.7218 C.ar    1  UNL1        0.0592
     14 CL         66.3736   96.2841   10.0331 Cl      1  UNL1       -0.0822
     15 C          66.5769   94.7024   12.0842 C.ar    1  UNL1        0.0324
     16 C          66.2268   93.4167   12.7729 C.ar    1  UNL1        0.1081
     17 N          66.7802   93.1207   14.1353 N.ar    1  UNL1       -0.1476
     18 N          66.0075   93.1254   15.4210 N.ar    1  UNL1       -0.1447
     19 C          66.9534   92.7756   16.5314 C.ar    1  UNL1        0.1446
     20 C          68.3106   92.5547   15.9321 C.ar    1  UNL1        0.1446
     21 N          68.2035   92.7680   14.4512 N.ar    1  UNL1       -0.1447
     22 C          64.2724   88.5698   14.1653 C.3     1  UNL1        0.0510
     23 C          63.8335   87.3604   14.9365 C.ar    1  UNL1        0.0071
     24 C          63.7866   86.0195   14.2657 C.ar    1  UNL1        0.0011
     25 C          63.3477   84.8101   15.0369 C.ar    1  UNL1        0.0356
     26 C          62.9557   84.9416   16.4788 C.ar    1  UNL1        0.0053
     27 C          63.0026   86.2824   17.1495 C.ar    1  UNL1        0.0294
     28 C          63.4415   87.4919   16.3784 C.ar    1  UNL1        0.1362
     29 F          63.4884   88.8327   17.0491 F       1  UNL1       -0.2045
     30 C          63.3008   83.4692   14.3661 C.ar    1  UNL1        0.1622
     31 N          62.3049   82.4409   14.8142 N.ar    1  UNL1       -0.2250
     32 C          62.2580   81.1001   14.1435 C.ar    1  UNL1        0.1022
     33 C          63.2069   80.7875   13.0247 C.ar    1  UNL1        0.0414
     34 C          64.2028   81.8158   12.5766 C.ar    1  UNL1        0.1022
     35 N          64.2498   83.1567   13.2473 N.ar    1  UNL1       -0.2250
@<TRIPOS>BOND
     1     2     1    1
     2     2     3    1
     3     3     4    1
     4     4     5   am
     5     5     6    2
     6     5    10    1
     7    10    11   ar
     8    11    12   ar
     9    12    13   ar
    10    13    14    1
    11    13    15   ar
    12    15    16   ar
    13    16    17    1
    14    17    18   ar
    15    18    19   ar
    16    19    20   ar
    17    20    21   ar
    18     4     7    1
    19     7    22    1
    20    22    23    1
    21    23    24   ar
    22    24    25   ar
    23    25    30    1
    24    30    31   ar
    25    31    32   ar
    26    32    33   ar
    27    33    34   ar
    28    34    35   ar
    29    25    26   ar
    30    26    27   ar
    31    27    28   ar
    32    28    29    1
    33     7     8    1
    34     8     9    1
    35     9     2    1
    36    16    10   ar
    37    21    17   ar
    38    28    23   ar
    39    35    30   ar
