@<TRIPOS>MOLECULE
*****
 35 40 0 0 0
SMALL
GASTEIGER

@<TRIPOS>ATOM
      1 C          60.6552   88.7567    9.8957 C.3     1  UNL1        0.1455
      2 C          59.9179   89.5754    8.8779 C.3     1  UNL1        0.1634
      3 O          59.4779   88.9493    7.5877 O.3     1  UNL1       -0.3507
      4 C          59.7754   87.5046    7.3155 C.3     1  UNL1        0.1598
      5 C          60.5127   86.6858    8.3333 C.3     1  UNL1        0.1093
      6 N          60.9527   87.3119    9.6235 N.3     1  UNL1       -0.1499
      7 C          61.0952   89.3827   11.1859 C.3     1  UNL1        0.1550
      8 C          59.7638   89.5749   11.8495 C.3     1  UNL1        0.0453
      9 C          61.0196   90.0001   12.5509 C.3     1  UNL1        0.0453
     10 O          62.5794   89.4080   10.9704 O.3     1  UNL1       -0.4403
     11 O          63.1016   91.5338    9.5710 O.2     1  UNL1       -0.2262
     12 C          63.2926   90.7185   10.8155 C.2     1  UNL1        0.4048
     13 N          64.1968   91.2136   11.9050 N.am    1  UNL1       -0.2433
     14 C          64.3878   90.3983   13.1496 C.3     1  UNL1        0.1124
     15 C          65.2921   90.8935   14.2392 C.3     1  UNL1        0.0743
     16 C          66.2452   91.7437   15.0258 C.3     1  UNL1        0.0189
     17 C          66.5466   92.9710   14.2179 C.3     1  UNL1        0.0189
     18 C          65.7798   92.8794   12.9319 C.3     1  UNL1        0.0743
     19 C          64.9100   92.5241   11.7502 C.3     1  UNL1        0.1124
     20 N          65.0045   91.5954   12.9451 N.3     1  UNL1       -0.2969
     21 H          65.2925   91.0090   12.1618 H       1  UNL1        0.1233
     22 S          61.6900   86.4932   10.6413 S.O2    1  UNL1        0.0635
     23 O          60.8259   86.4008   11.6743 O.2     1  UNL1       -0.1528
     24 O          62.8634   86.3948    9.7121 O.2     1  UNL1       -0.1528
     25 C          62.4273   85.6744   11.6592 C.ar    1  UNL1        0.1223
     26 C          62.4515   84.1791   11.5439 C.ar    1  UNL1        0.0208
     27 C          63.1888   83.3603   12.5618 C.ar    1  UNL1        0.0128
     28 C          63.9018   84.0369   13.6948 C.ar    1  UNL1        0.0578
     29 CL         64.6390   83.2181   14.7127 Cl      1  UNL1       -0.0822
     30 C          63.8776   85.5322   13.8101 C.ar    1  UNL1        0.0128
     31 C          63.1403   86.3510   12.7922 C.ar    1  UNL1        0.0208
     32 C          60.8101   85.2411    8.0610 C.3     1  UNL1        0.0203
     33 C          61.5825   84.8524    6.8353 C.3     1  UNL1        0.0015
     34 C          61.6227   84.2526    5.4610 C.3     1  UNL1        0.0000
     35 C          62.8802   84.7790    6.0867 C.3     1  UNL1        0.0000
@<TRIPOS>BOND
     1    11    12    2
     2    12    10    1
     3    10     7    1
     4     1     7    1
     5     1     2    1
     6     2     3    1
     7     3     4    1
     8     4     5    1
     9     5    32    1
    10    32    33    1
    11    33    34    1
    12    34    35    1
    13     5     6    1
    14     6    22    1
    15    22    23    2
    16    22    24    2
    17    22    25    1
    18    25    26   ar
    19    26    27   ar
    20    27    28   ar
    21    28    29    1
    22    28    30   ar
    23    30    31   ar
    24     7     8    1
    25     8     9    1
    26    12    13   am
    27    13    14    1
    28    14    15    1
    29    15    16    1
    30    16    17    1
    31    17    18    1
    32    18    19    1
    33    18    20    1
    34     9     7    1
    35    19    13    1
    36     6     1    1
    37    31    25   ar
    38    20    15    1
    39    35    33    1
    40    20    21    1
@<TRIPOS>MOLECULE
*****
 35 40 0 0 0
SMALL
GASTEIGER

@<TRIPOS>ATOM
      1 C          62.6331   90.3754   11.4932 C.3     1  UNL1        0.1455
      2 C          62.7686   91.2162   10.2584 C.3     1  UNL1        0.1634
      3 O          63.9663   92.1019   10.0818 O.3     1  UNL1       -0.3507
      4 C          65.0285   92.1467   11.1400 C.3     1  UNL1        0.1598
      5 C          64.8930   91.3059   12.3748 C.3     1  UNL1        0.1093
      6 N          63.6953   90.4202   12.5514 N.3     1  UNL1       -0.1499
      7 C          61.4354   89.4898   11.6698 C.3     1  UNL1        0.1550
      8 C          60.3419   90.5143   11.6036 C.3     1  UNL1        0.0453
      9 C          60.0024   89.0669   11.8020 C.3     1  UNL1        0.0453
     10 O          62.1130   88.1576   11.7973 O.3     1  UNL1       -0.4403
     11 O          62.0034   87.8346    9.2217 O.2     1  UNL1       -0.2262
     12 C          62.2886   87.2868   10.5886 C.2     1  UNL1        0.4048
     13 N          62.7495   85.8682   10.7470 N.am    1  UNL1       -0.2433
     14 C          63.0348   85.3204   12.1139 C.3     1  UNL1        0.1124
     15 C          63.4958   83.9017   12.2723 C.3     1  UNL1        0.0743
     16 C          63.9145   82.4949   11.9633 C.3     1  UNL1        0.0189
     17 C          63.8512   82.3084   10.4764 C.3     1  UNL1        0.0189
     18 C          63.3933   83.5999    9.8661 C.3     1  UNL1        0.0743
     19 C          62.9252   84.9973    9.5384 C.3     1  UNL1        0.1124
     20 N          63.1736   84.5847   10.9762 N.3     1  UNL1       -0.2969
     21 H          62.2009   84.8917   10.9791 H       1  UNL1        0.1233
     22 S          63.5598   89.5794   13.7862 S.O2    1  UNL1        0.0635
     23 O          64.1747   88.4221   13.4623 O.2     1  UNL1       -0.1528
     24 O          62.8218   90.6951   14.4648 O.2     1  UNL1       -0.1528
     25 C          63.4243   88.7386   15.0209 C.ar    1  UNL1        0.1223
     26 C          62.9760   89.3639   16.3085 C.ar    1  UNL1        0.0208
     27 C          62.8405   88.5231   17.5433 C.ar    1  UNL1        0.0128
     28 C          63.1534   87.0570   17.4904 C.ar    1  UNL1        0.0578
     29 CL         63.0179   86.2162   18.7252 Cl      1  UNL1       -0.0822
     30 C          63.6017   86.4317   16.2028 C.ar    1  UNL1        0.0128
     31 C          63.7372   87.2725   14.9680 C.ar    1  UNL1        0.0208
     32 C          65.9551   91.3507   13.4329 C.3     1  UNL1        0.0203
     33 C          66.4642   92.6715   13.9291 C.3     1  UNL1        0.0015
     34 C          67.2487   93.4689   14.9285 C.3     1  UNL1        0.0000
     35 C          66.5615   94.1618   13.7894 C.3     1  UNL1        0.0000
@<TRIPOS>BOND
     1    11    12    2
     2    12    10    1
     3    10     7    1
     4     1     7    1
     5     1     2    1
     6     2     3    1
     7     3     4    1
     8     4     5    1
     9     5    32    1
    10    32    33    1
    11    33    34    1
    12    34    35    1
    13     5     6    1
    14     6    22    1
    15    22    23    2
    16    22    24    2
    17    22    25    1
    18    25    26   ar
    19    26    27   ar
    20    27    28   ar
    21    28    29    1
    22    28    30   ar
    23    30    31   ar
    24     7     8    1
    25     8     9    1
    26    12    13   am
    27    13    14    1
    28    14    15    1
    29    15    16    1
    30    16    17    1
    31    17    18    1
    32    18    19    1
    33    18    20    1
    34     9     7    1
    35    19    13    1
    36     6     1    1
    37    31    25   ar
    38    20    15    1
    39    35    33    1
    40    20    21    1
@<TRIPOS>MOLECULE
*****
 35 40 0 0 0
SMALL
GASTEIGER

@<TRIPOS>ATOM
      1 C          63.4170   88.2456   13.1508 C.3     1  UNL1        0.1455
      2 C          64.2395   87.8636   14.3456 C.3     1  UNL1        0.1634
      3 O          64.4883   86.4167   14.6532 O.3     1  UNL1       -0.3507
      4 C          63.9145   85.3519   13.7661 C.3     1  UNL1        0.1598
      5 C          63.0920   85.7340   12.5713 C.3     1  UNL1        0.1093
      6 N          62.8433   87.1809   12.2636 N.3     1  UNL1       -0.1499
      7 C          63.1683   89.6925   12.8431 C.3     1  UNL1        0.1550
      8 C          61.6863   89.7552   13.0662 C.3     1  UNL1        0.0453
      9 C          62.4348   90.9866   12.6501 C.3     1  UNL1        0.0453
     10 O          64.5639   90.1324   12.5132 O.3     1  UNL1       -0.4403
     11 O          65.3649   91.3207   14.6803 O.2     1  UNL1       -0.2262
     12 C          65.1534   91.3312   13.1954 C.2     1  UNL1        0.4048
     13 N          65.5314   92.5405   12.3925 N.am    1  UNL1       -0.2433
     14 C          65.3199   92.5511   10.9075 C.3     1  UNL1        0.1124
     15 C          65.6979   93.7605   10.1046 C.3     1  UNL1        0.0743
     16 C          66.2003   95.1226    9.7277 C.3     1  UNL1        0.0189
     17 C          66.6628   95.8086   10.9789 C.3     1  UNL1        0.0189
     18 C          66.4462   94.8705   12.1291 C.3     1  UNL1        0.0743
     19 C          66.1209   93.7394   13.0746 C.3     1  UNL1        0.1124
     20 N          65.8498   93.6046   11.5888 N.3     1  UNL1       -0.2969
     21 H          64.9375   93.4423   12.0150 H       1  UNL1        0.1233
     22 S          62.0208   87.5629   11.0688 S.O2    1  UNL1        0.0635
     23 O          62.9193   88.0851   10.2073 O.2     1  UNL1       -0.1528
     24 O          60.7868   87.0602   11.7576 O.2     1  UNL1       -0.1528
     25 C          61.1983   87.9450    9.8740 C.ar    1  UNL1        0.1223
     26 C          60.5872   86.8799    9.0127 C.ar    1  UNL1        0.0208
     27 C          59.7647   87.2618    7.8178 C.ar    1  UNL1        0.0128
     28 C          59.5535   88.7090    7.4844 C.ar    1  UNL1        0.0578
     29 CL         58.7311   89.0910    6.2895 Cl      1  UNL1       -0.0822
     30 C          60.1647   89.7741    8.3457 C.ar    1  UNL1        0.0128
     31 C          60.9871   89.3921    9.5406 C.ar    1  UNL1        0.0208
     32 C          62.5183   84.6692   11.6842 C.3     1  UNL1        0.0203
     33 C          63.4030   83.5835   11.1470 C.3     1  UNL1        0.0015
     34 C          64.1845   82.9858   10.0147 C.3     1  UNL1        0.0000
     35 C          64.1538   82.3007   11.3488 C.3     1  UNL1        0.0000
@<TRIPOS>BOND
     1    11    12    2
     2    12    10    1
     3    10     7    1
     4     1     7    1
     5     1     2    1
     6     2     3    1
     7     3     4    1
     8     4     5    1
     9     5    32    1
    10    32    33    1
    11    33    34    1
    12    34    35    1
    13     5     6    1
    14     6    22    1
    15    22    23    2
    16    22    24    2
    17    22    25    1
    18    25    26   ar
    19    26    27   ar
    20    27    28   ar
    21    28    29    1
    22    28    30   ar
    23    30    31   ar
    24     7     8    1
    25     8     9    1
    26    12    13   am
    27    13    14    1
    28    14    15    1
    29    15    16    1
    30    16    17    1
    31    17    18    1
    32    18    19    1
    33    18    20    1
    34     9     7    1
    35    19    13    1
    36     6     1    1
    37    31    25   ar
    38    20    15    1
    39    35    33    1
    40    20    21    1
@<TRIPOS>MOLECULE
*****
 35 40 0 0 0
SMALL
GASTEIGER

@<TRIPOS>ATOM
      1 C          63.3337   88.3204   12.9330 C.3     1  UNL1        0.1455
      2 C          64.1791   87.9497   14.1154 C.3     1  UNL1        0.1634
      3 O          64.4316   86.5057   14.4334 O.3     1  UNL1       -0.3507
      4 C          63.8387   85.4326   13.5692 C.3     1  UNL1        0.1598
      5 C          62.9934   85.8034   12.3869 C.3     1  UNL1        0.1093
      6 N          62.7409   87.2473   12.0688 N.3     1  UNL1       -0.1499
      7 C          63.0812   89.7644   12.6149 C.3     1  UNL1        0.1550
      8 C          61.7017   89.9190   13.1831 C.3     1  UNL1        0.0453
      9 C          62.3801   91.0879   12.5326 C.3     1  UNL1        0.0453
     10 O          64.3731   90.1114   11.9362 O.3     1  UNL1       -0.4403
     11 O          64.5122   92.4579   10.8296 O.2     1  UNL1       -0.2262
     12 C          64.8708   91.5265   11.9493 C.2     1  UNL1        0.4048
     13 N          65.7269   92.0099   13.0821 N.am    1  UNL1       -0.2433
     14 C          66.0854   91.0784   14.2018 C.3     1  UNL1        0.1124
     15 C          66.9416   91.5619   15.3347 C.3     1  UNL1        0.0743
     16 C          67.7807   92.4404   16.2145 C.3     1  UNL1        0.0189
     17 C          67.8609   93.7951   15.5756 C.3     1  UNL1        0.0189
     18 C          67.0715   93.7540   14.3008 C.3     1  UNL1        0.0743
     19 C          66.2245   93.4249   13.0952 C.3     1  UNL1        0.1124
     20 N          66.5033   92.3737   14.1519 N.3     1  UNL1       -0.2969
     21 H          66.8496   91.9477   13.2922 H       1  UNL1        0.1233
     22 S          61.8955   87.6181   10.8865 S.O2    1  UNL1        0.0635
     23 O          62.7935   87.9172    9.9239 O.2     1  UNL1       -0.1528
     24 O          60.6565   87.3682   11.6940 O.2     1  UNL1       -0.1528
     25 C          61.0502   87.9889    9.7041 C.ar    1  UNL1        0.1223
     26 C          60.3943   86.9168    8.8855 C.ar    1  UNL1        0.0208
     27 C          59.5490   87.2875    7.7031 C.ar    1  UNL1        0.0128
     28 C          59.3597   88.7304    7.3394 C.ar    1  UNL1        0.0578
     29 CL         58.5144   89.1011    6.1570 Cl      1  UNL1       -0.0822
     30 C          60.0156   89.8025    8.1580 C.ar    1  UNL1        0.0128
     31 C          60.8609   89.4318    9.3404 C.ar    1  UNL1        0.0208
     32 C          62.4006   84.7302   11.5228 C.3     1  UNL1        0.0203
     33 C          63.2381   83.5600   11.0996 C.3     1  UNL1        0.0015
     34 C          63.5555   82.0958   11.1725 C.3     1  UNL1        0.0000
     35 C          64.3712   82.9972   10.2938 C.3     1  UNL1        0.0000
@<TRIPOS>BOND
     1    11    12    2
     2    12    10    1
     3    10     7    1
     4     1     7    1
     5     1     2    1
     6     2     3    1
     7     3     4    1
     8     4     5    1
     9     5    32    1
    10    32    33    1
    11    33    34    1
    12    34    35    1
    13     5     6    1
    14     6    22    1
    15    22    23    2
    16    22    24    2
    17    22    25    1
    18    25    26   ar
    19    26    27   ar
    20    27    28   ar
    21    28    29    1
    22    28    30   ar
    23    30    31   ar
    24     7     8    1
    25     8     9    1
    26    12    13   am
    27    13    14    1
    28    14    15    1
    29    15    16    1
    30    16    17    1
    31    17    18    1
    32    18    19    1
    33    18    20    1
    34     9     7    1
    35    19    13    1
    36     6     1    1
    37    31    25   ar
    38    20    15    1
    39    35    33    1
    40    20    21    1
@<TRIPOS>MOLECULE
*****
 35 40 0 0 0
SMALL
GASTEIGER

@<TRIPOS>ATOM
      1 C          63.7063   90.1996   14.5742 C.3     1  UNL1        0.1455
      2 C          62.9476   89.8240   15.8124 C.3     1  UNL1        0.1634
      3 O          63.1819   90.5720   17.0913 O.3     1  UNL1       -0.3507
      4 C          64.1748   91.6956   17.1319 C.3     1  UNL1        0.1598
      5 C          64.9335   92.0712   15.8937 C.3     1  UNL1        0.1093
      6 N          64.6992   91.3232   14.6148 N.3     1  UNL1       -0.1499
      7 C          63.4720   89.4516   13.2952 C.3     1  UNL1        0.1550
      8 C          62.4913   90.3718   12.6311 C.3     1  UNL1        0.0453
      9 C          62.9254   89.1134   11.9400 C.3     1  UNL1        0.0453
     10 O          64.3715   88.2715   13.5152 O.3     1  UNL1       -0.4403
     11 O          63.9292   87.3806   15.9153 O.2     1  UNL1       -0.2262
     12 C          63.9442   87.1632   14.4313 C.2     1  UNL1        0.4048
     13 N          63.5320   85.8376   13.8632 N.am    1  UNL1       -0.2433
     14 C          63.5470   85.6202   12.3791 C.3     1  UNL1        0.1124
     15 C          63.1347   84.2945   11.8110 C.3     1  UNL1        0.0743
     16 C          62.6636   82.8748   11.6990 C.3     1  UNL1        0.0189
     17 C          62.4083   82.3605   13.0847 C.3     1  UNL1        0.0189
     18 C          62.7215   83.4622   14.0532 C.3     1  UNL1        0.0743
     19 C          63.1047   84.7293   14.7792 C.3     1  UNL1        0.1124
     20 N          63.1704   84.6576   13.2660 N.3     1  UNL1       -0.2969
     21 H          64.1204   84.9129   13.5358 H       1  UNL1        0.1233
     22 S          65.4579   91.6988   13.3765 S.O2    1  UNL1        0.0635
     23 O          64.6315   92.5503   12.7328 O.2     1  UNL1       -0.1528
     24 O          66.5934   90.8173   13.8049 O.2     1  UNL1       -0.1528
     25 C          66.2165   92.0744   12.1382 C.ar    1  UNL1        0.1223
     26 C          65.5315   92.8328   11.0403 C.ar    1  UNL1        0.0208
     27 C          66.2901   93.2085    9.8019 C.ar    1  UNL1        0.0128
     28 C          67.7336   92.8258    9.6616 C.ar    1  UNL1        0.0578
     29 CL         68.4922   93.2015    8.4233 Cl      1  UNL1       -0.0822
     30 C          68.4186   92.0674   10.7596 C.ar    1  UNL1        0.0128
     31 C          67.6601   91.6917   11.9979 C.ar    1  UNL1        0.0208
     32 C          65.9264   93.1947   15.9344 C.3     1  UNL1        0.0203
     33 C          67.3965   92.8969   15.9356 C.3     1  UNL1        0.0015
     34 C          68.5590   92.0951   16.4411 C.3     1  UNL1        0.0000
     35 C          68.7802   93.1828   15.4322 C.3     1  UNL1        0.0000
@<TRIPOS>BOND
     1    11    12    2
     2    12    10    1
     3    10     7    1
     4     1     7    1
     5     1     2    1
     6     2     3    1
     7     3     4    1
     8     4     5    1
     9     5    32    1
    10    32    33    1
    11    33    34    1
    12    34    35    1
    13     5     6    1
    14     6    22    1
    15    22    23    2
    16    22    24    2
    17    22    25    1
    18    25    26   ar
    19    26    27   ar
    20    27    28   ar
    21    28    29    1
    22    28    30   ar
    23    30    31   ar
    24     7     8    1
    25     8     9    1
    26    12    13   am
    27    13    14    1
    28    14    15    1
    29    15    16    1
    30    16    17    1
    31    17    18    1
    32    18    19    1
    33    18    20    1
    34     9     7    1
    35    19    13    1
    36     6     1    1
    37    31    25   ar
    38    20    15    1
    39    35    33    1
    40    20    21    1
@<TRIPOS>MOLECULE
*****
 35 40 0 0 0
SMALL
GASTEIGER

@<TRIPOS>ATOM
      1 C          63.3326   88.1748   12.9314 C.3     1  UNL1        0.1455
      2 C          64.1911   87.7986   14.1025 C.3     1  UNL1        0.1634
      3 O          64.4326   86.3530   14.4218 O.3     1  UNL1       -0.3507
      4 C          63.8156   85.2837   13.5700 C.3     1  UNL1        0.1598
      5 C          62.9570   85.6598   12.3989 C.3     1  UNL1        0.1093
      6 N          62.7156   87.1054   12.0796 N.3     1  UNL1       -0.1499
      7 C          63.0912   89.6204   12.6121 C.3     1  UNL1        0.1550
      8 C          63.7175   89.6947   11.2512 C.3     1  UNL1        0.0453
      9 C          63.0964   90.9174   11.8587 C.3     1  UNL1        0.0453
     10 O          62.3810   90.0482   13.8622 O.3     1  UNL1       -0.4403
     11 O          62.7601   89.8199   16.4223 O.2     1  UNL1       -0.2262
     12 C          63.1679   90.3849   15.0940 C.2     1  UNL1        0.4048
     13 N          64.3627   91.2866   14.9975 N.am    1  UNL1       -0.2433
     14 C          64.7705   91.8517   13.6691 C.3     1  UNL1        0.1124
     15 C          65.9653   92.7535   13.5726 C.3     1  UNL1        0.0743
     16 C          67.1693   93.5703   13.9376 C.3     1  UNL1        0.0189
     17 C          67.3881   93.4385   15.4156 C.3     1  UNL1        0.0189
     18 C          66.3195   92.5402   15.9643 C.3     1  UNL1        0.0743
     19 C          65.1496   91.6234   16.2292 C.3     1  UNL1        0.1124
     20 N          65.4401   92.1168   14.8251 N.3     1  UNL1       -0.2969
     21 H          64.4824   92.4242   14.9943 H       1  UNL1        0.1233
     22 S          61.8571   87.4815   10.9085 S.O2    1  UNL1        0.0635
     23 O          62.6412   87.2375    9.8370 O.2     1  UNL1       -0.1528
     24 O          60.7452   87.8547   11.8435 O.2     1  UNL1       -0.1528
     25 C          60.9987   87.8576    9.7373 C.ar    1  UNL1        0.1223
     26 C          60.8046   89.3022    9.3830 C.ar    1  UNL1        0.0208
     27 C          59.9462   89.6784    8.2119 C.ar    1  UNL1        0.0128
     28 C          59.2819   88.6100    7.3951 C.ar    1  UNL1        0.0578
     29 CL         58.4234   88.9862    6.2239 Cl      1  UNL1       -0.0822
     30 C          59.4759   87.1654    7.7493 C.ar    1  UNL1        0.0128
     31 C          60.3343   86.7892    8.9205 C.ar    1  UNL1        0.0208
     32 C          62.3401   84.5904   11.5471 C.3     1  UNL1        0.0203
     33 C          63.1878   83.4733   11.0147 C.3     1  UNL1        0.0015
     34 C          64.4025   83.0064   10.2687 C.3     1  UNL1        0.0000
     35 C          63.4415   82.0055   10.8385 C.3     1  UNL1        0.0000
@<TRIPOS>BOND
     1    11    12    2
     2    12    10    1
     3    10     7    1
     4     1     7    1
     5     1     2    1
     6     2     3    1
     7     3     4    1
     8     4     5    1
     9     5    32    1
    10    32    33    1
    11    33    34    1
    12    34    35    1
    13     5     6    1
    14     6    22    1
    15    22    23    2
    16    22    24    2
    17    22    25    1
    18    25    26   ar
    19    26    27   ar
    20    27    28   ar
    21    28    29    1
    22    28    30   ar
    23    30    31   ar
    24     7     8    1
    25     8     9    1
    26    12    13   am
    27    13    14    1
    28    14    15    1
    29    15    16    1
    30    16    17    1
    31    17    18    1
    32    18    19    1
    33    18    20    1
    34     9     7    1
    35    19    13    1
    36     6     1    1
    37    31    25   ar
    38    20    15    1
    39    35    33    1
    40    20    21    1
@<TRIPOS>MOLECULE
*****
 35 40 0 0 0
SMALL
GASTEIGER

@<TRIPOS>ATOM
      1 C          62.7992   95.5221    0.5025 C.3     1  UNL1        0.1455
      2 C          64.1129   95.8500    1.1481 C.3     1  UNL1        0.1634
      3 O          65.3518   95.9665    0.3106 O.3     1  UNL1       -0.3507
      4 C          65.2771   95.7551   -1.1725 C.3     1  UNL1        0.1598
      5 C          63.9634   95.4273   -1.8182 C.3     1  UNL1        0.1093
      6 N          62.7245   95.3108   -0.9806 N.3     1  UNL1       -0.1499
      7 C          61.5603   95.4057    1.3400 C.3     1  UNL1        0.1550
      8 C          61.3792   96.8404    1.7381 C.3     1  UNL1        0.0453
      9 C          60.4079   95.8015    2.2148 C.3     1  UNL1        0.0453
     10 O          61.3111   93.9303    1.2328 O.3     1  UNL1       -0.4403
     11 O          63.3149   92.7216    2.3615 O.2     1  UNL1       -0.2262
     12 C          61.8433   93.0015    2.2836 C.2     1  UNL1        0.4048
     13 N          60.9039   92.3527    3.2564 N.am    1  UNL1       -0.2433
     14 C          59.4322   92.6326    3.1785 C.3     1  UNL1        0.1124
     15 C          58.4928   91.9837    4.1514 C.3     1  UNL1        0.0743
     16 C          57.9569   91.1510    5.2780 C.3     1  UNL1        0.0189
     17 C          59.1137   90.4531    5.9296 C.3     1  UNL1        0.0189
     18 C          60.3647   90.8545    5.2058 C.3     1  UNL1        0.0743
     19 C          61.4360   91.4239    4.3072 C.3     1  UNL1        0.1124
     20 N          59.9809   91.8006    4.1067 N.3     1  UNL1       -0.2969
     21 H          60.2549   91.4121    3.2042 H       1  UNL1        0.1233
     22 S          61.4108   94.9829   -1.6263 S.O2    1  UNL1        0.0635
     23 O          61.3872   93.6334   -1.6516 O.2     1  UNL1       -0.1528
     24 O          61.1105   96.4465   -1.7583 O.2     1  UNL1       -0.1528
     25 C          60.0972   94.6550   -2.2719 C.ar    1  UNL1        0.1223
     26 C          58.8347   94.6894   -1.4628 C.ar    1  UNL1        0.0208
     27 C          57.5210   94.3615   -2.1084 C.ar    1  UNL1        0.0128
     28 C          57.4700   93.9991   -3.5631 C.ar    1  UNL1        0.0578
     29 CL         56.1563   93.6712   -4.2087 Cl      1  UNL1       -0.0822
     30 C          58.7326   93.9647   -4.3722 C.ar    1  UNL1        0.0128
     31 C          60.0462   94.2926   -3.7266 C.ar    1  UNL1        0.0208
     32 C          63.8888   95.2159   -3.3013 C.3     1  UNL1        0.0203
     33 C          64.1458   93.8557   -3.8790 C.3     1  UNL1        0.0015
     34 C          63.8388   92.3885   -3.9337 C.3     1  UNL1        0.0000
     35 C          64.8977   92.9669   -4.8248 C.3     1  UNL1        0.0000
@<TRIPOS>BOND
     1    11    12    2
     2    12    10    1
     3    10     7    1
     4     1     7    1
     5     1     2    1
     6     2     3    1
     7     3     4    1
     8     4     5    1
     9     5    32    1
    10    32    33    1
    11    33    34    1
    12    34    35    1
    13     5     6    1
    14     6    22    1
    15    22    23    2
    16    22    24    2
    17    22    25    1
    18    25    26   ar
    19    26    27   ar
    20    27    28   ar
    21    28    29    1
    22    28    30   ar
    23    30    31   ar
    24     7     8    1
    25     8     9    1
    26    12    13   am
    27    13    14    1
    28    14    15    1
    29    15    16    1
    30    16    17    1
    31    17    18    1
    32    18    19    1
    33    18    20    1
    34     9     7    1
    35    19    13    1
    36     6     1    1
    37    31    25   ar
    38    20    15    1
    39    35    33    1
    40    20    21    1
@<TRIPOS>MOLECULE
*****
 35 40 0 0 0
SMALL
GASTEIGER

@<TRIPOS>ATOM
      1 C          64.1157   91.3416   11.9311 C.3     1  UNL1        0.1455
      2 C          64.5964   92.3432   10.9233 C.3     1  UNL1        0.1634
      3 O          65.9085   93.0410   11.1265 O.3     1  UNL1       -0.3507
      4 C          66.7399   92.7373   12.3375 C.3     1  UNL1        0.1598
      5 C          66.2592   91.7357   13.3453 C.3     1  UNL1        0.1093
      6 N          64.9470   91.0378   13.1421 N.3     1  UNL1       -0.1499
      7 C          62.8035   90.6437   11.7279 C.3     1  UNL1        0.1550
      8 C          61.9231   91.4839   12.6046 C.3     1  UNL1        0.0453
      9 C          61.3439   90.3219   11.8536 C.3     1  UNL1        0.0453
     10 O          63.2283   89.5610   10.7805 O.3     1  UNL1       -0.4403
     11 O          62.8793   87.1696   11.7340 O.2     1  UNL1       -0.2262
     12 C          62.4999   88.2498   10.7649 C.2     1  UNL1        0.4048
     13 N          61.3922   88.0189    9.7802 N.am    1  UNL1       -0.2433
     14 C          61.0129   89.0991    8.8111 C.3     1  UNL1        0.1124
     15 C          59.9051   88.8682    7.8264 C.3     1  UNL1        0.0743
     16 C          58.7894   88.2218    7.0600 C.3     1  UNL1        0.0189
     17 C          58.5879   86.8412    7.6105 C.3     1  UNL1        0.0189
     18 C          59.5791   86.6341    8.7172 C.3     1  UNL1        0.0743
     19 C          60.6639   86.7077    9.7646 C.3     1  UNL1        0.1124
     20 N          60.3932   87.8869    8.8506 N.3     1  UNL1       -0.2969
     21 H          61.3784   87.6785    8.6883 H       1  UNL1        0.1233
     22 S          64.4663   90.0362   14.1499 S.O2    1  UNL1        0.0635
     23 O          64.6792   88.8443   13.5529 O.2     1  UNL1       -0.1528
     24 O          64.1027   91.1514   15.0847 O.2     1  UNL1       -0.1528
     25 C          63.9856   89.0345   15.1577 C.ar    1  UNL1        0.1223
     26 C          64.2691   87.5752   14.9585 C.ar    1  UNL1        0.0208
     27 C          63.7884   86.5734   15.9662 C.ar    1  UNL1        0.0128
     28 C          63.0243   87.0311   17.1730 C.ar    1  UNL1        0.0578
     29 CL         62.5436   86.0294   18.1808 Cl      1  UNL1       -0.0822
     30 C          62.7408   88.4905   17.3722 C.ar    1  UNL1        0.0128
     31 C          63.2214   89.4923   16.3645 C.ar    1  UNL1        0.0208
     32 C          67.0905   91.4320   14.5562 C.3     1  UNL1        0.0203
     33 C          67.9318   92.5074   15.1775 C.3     1  UNL1        0.0015
     34 C          68.0583   93.8839   15.7599 C.3     1  UNL1        0.0000
     35 C          69.2622   92.9935   15.6710 C.3     1  UNL1        0.0000
@<TRIPOS>BOND
     1    11    12    2
     2    12    10    1
     3    10     7    1
     4     1     7    1
     5     1     2    1
     6     2     3    1
     7     3     4    1
     8     4     5    1
     9     5    32    1
    10    32    33    1
    11    33    34    1
    12    34    35    1
    13     5     6    1
    14     6    22    1
    15    22    23    2
    16    22    24    2
    17    22    25    1
    18    25    26   ar
    19    26    27   ar
    20    27    28   ar
    21    28    29    1
    22    28    30   ar
    23    30    31   ar
    24     7     8    1
    25     8     9    1
    26    12    13   am
    27    13    14    1
    28    14    15    1
    29    15    16    1
    30    16    17    1
    31    17    18    1
    32    18    19    1
    33    18    20    1
    34     9     7    1
    35    19    13    1
    36     6     1    1
    37    31    25   ar
    38    20    15    1
    39    35    33    1
    40    20    21    1
@<TRIPOS>MOLECULE
*****
 35 40 0 0 0
SMALL
GASTEIGER

@<TRIPOS>ATOM
      1 C          62.7255   88.7462   12.6305 C.3     1  UNL1        0.1455
      2 C          63.1412   89.2942   13.9634 C.3     1  UNL1        0.1634
      3 O          63.7006   88.3768   15.0101 O.3     1  UNL1       -0.3507
      4 C          63.8443   86.9115   14.7237 C.3     1  UNL1        0.1598
      5 C          63.4285   86.3634   13.3907 C.3     1  UNL1        0.1093
      6 N          62.8691   87.2808   12.3441 N.3     1  UNL1       -0.1499
      7 C          62.1660   89.6636   11.5838 C.3     1  UNL1        0.1550
      8 C          60.7160   89.6423   11.9669 C.3     1  UNL1        0.0453
      9 C          61.1705   90.4629   10.7965 C.3     1  UNL1        0.0453
     10 O          63.4219   90.0035   10.8372 O.3     1  UNL1       -0.4403
     11 O          63.5817   92.3593    9.7535 O.2     1  UNL1       -0.2262
     12 C          63.9476   91.4083   10.8542 C.2     1  UNL1        0.4048
     13 N          64.8391   91.8619   11.9719 N.am    1  UNL1       -0.2433
     14 C          65.2050   90.9108   13.0726 C.3     1  UNL1        0.1124
     15 C          66.0966   91.3644   14.1904 C.3     1  UNL1        0.0743
     16 C          66.9731   92.2162   15.0600 C.3     1  UNL1        0.0189
     17 C          67.0653   93.5763   14.4343 C.3     1  UNL1        0.0189
     18 C          66.2459   93.5653   13.1780 C.3     1  UNL1        0.0743
     19 C          65.3649   93.2666   11.9889 C.3     1  UNL1        0.1124
     20 N          65.6472   92.1981   13.0272 N.3     1  UNL1       -0.2969
     21 H          65.9650   91.7754   12.1550 H       1  UNL1        0.1233
     22 S          62.4534   86.7328   11.0111 S.O2    1  UNL1        0.0635
     23 O          63.5257   86.9494   10.2201 O.2     1  UNL1       -0.1528
     24 O          61.1219   86.3481   11.5846 O.2     1  UNL1       -0.1528
     25 C          62.0377   86.1848    9.6781 C.ar    1  UNL1        0.1223
     26 C          63.0098   85.3894    8.8582 C.ar    1  UNL1        0.0208
     27 C          62.5943   84.8414    7.5251 C.ar    1  UNL1        0.0128
     28 C          61.2066   85.0887    7.0121 C.ar    1  UNL1        0.0578
     29 CL         60.7910   84.5406    5.6791 Cl      1  UNL1       -0.0822
     30 C          60.2345   85.8840    7.8321 C.ar    1  UNL1        0.0128
     31 C          60.6500   86.4321    9.1651 C.ar    1  UNL1        0.0208
     32 C          63.5722   84.8981   13.1044 C.3     1  UNL1        0.0203
     33 C          62.9892   83.8887   14.0485 C.3     1  UNL1        0.0015
     34 C          62.3087   82.5731   14.2856 C.3     1  UNL1        0.0000
     35 C          62.6597   83.4559   15.4464 C.3     1  UNL1        0.0000
@<TRIPOS>BOND
     1    11    12    2
     2    12    10    1
     3    10     7    1
     4     1     7    1
     5     1     2    1
     6     2     3    1
     7     3     4    1
     8     4     5    1
     9     5    32    1
    10    32    33    1
    11    33    34    1
    12    34    35    1
    13     5     6    1
    14     6    22    1
    15    22    23    2
    16    22    24    2
    17    22    25    1
    18    25    26   ar
    19    26    27   ar
    20    27    28   ar
    21    28    29    1
    22    28    30   ar
    23    30    31   ar
    24     7     8    1
    25     8     9    1
    26    12    13   am
    27    13    14    1
    28    14    15    1
    29    15    16    1
    30    16    17    1
    31    17    18    1
    32    18    19    1
    33    18    20    1
    34     9     7    1
    35    19    13    1
    36     6     1    1
    37    31    25   ar
    38    20    15    1
    39    35    33    1
    40    20    21    1
