@<TRIPOS>MOLECULE
*****
 24 27 0 0 0
SMALL
GASTEIGER

@<TRIPOS>ATOM
      1 C          62.7101   86.1628   11.6291 C.3     1  UNL1        0.0991
      2 C          63.3620   81.7107   11.5716 C.ar    1  UNL1       -0.0000
      3 C          62.3329   82.3062   12.4860 C.ar    1  UNL1       -0.0003
      4 C          62.1156   83.7903   12.5051 C.ar    1  UNL1       -0.0029
      5 C          62.9274   84.6788   11.6099 C.ar    1  UNL1       -0.0061
      6 C          63.9565   84.0832   10.6956 C.ar    1  UNL1       -0.0029
      7 C          64.1739   82.5992   10.6764 C.ar    1  UNL1       -0.0003
      8 N          63.3271   86.9972   12.7121 N.3     1  UNL1       -0.2690
      9 C          63.4761   88.4898   12.6985 C.3     1  UNL1        0.0724
     10 C          64.1446   88.9007   13.9769 C.3     1  UNL1        0.0188
     11 C          64.4088   87.6621   14.7807 C.3     1  UNL1        0.0188
     12 C          63.9035   86.4857   13.9990 C.3     1  UNL1        0.0724
     13 C          61.8758   86.8125   10.5653 C.3     1  UNL1        0.0991
     14 C          61.7365   86.1629    9.2204 C.ar    1  UNL1       -0.0061
     15 C          62.9375   85.5679    8.5469 C.ar    1  UNL1       -0.0029
     16 C          62.7982   84.9184    7.2020 C.ar    1  UNL1       -0.0003
     17 C          61.4579   84.8639    6.5306 C.ar    1  UNL1       -0.0000
     18 C          60.2570   85.4589    7.2042 C.ar    1  UNL1       -0.0003
     19 C          60.3963   86.1084    8.5490 C.ar    1  UNL1       -0.0029
     20 N          61.1807   88.1117   10.8463 N.3     1  UNL1       -0.2690
     21 C          61.5395   89.4473   10.2654 C.3     1  UNL1        0.0724
     22 C          60.5853   90.4644   10.8176 C.3     1  UNL1        0.0188
     23 C          59.6368   89.7575   11.7399 C.3     1  UNL1        0.0188
     24 C          60.0047   88.3034   11.7576 C.3     1  UNL1        0.0724
@<TRIPOS>BOND
     1     2     3   ar
     2     3     4   ar
     3     4     5   ar
     4     5     1    1
     5     1    13    1
     6    13    14    1
     7    14    15   ar
     8    15    16   ar
     9    16    17   ar
    10    17    18   ar
    11    18    19   ar
    12    13    20    1
    13    20    21    1
    14    21    22    1
    15    22    23    1
    16    23    24    1
    17     1     8    1
    18     8     9    1
    19     9    10    1
    20    10    11    1
    21    11    12    1
    22     5     6   ar
    23     6     7   ar
    24     7     2   ar
    25    19    14   ar
    26    24    20    1
    27    12     8    1
@<TRIPOS>MOLECULE
*****
 24 27 0 0 0
SMALL
GASTEIGER

@<TRIPOS>ATOM
      1 C          61.8750   86.8149   10.5686 C.3     1  UNL1        0.0991
      2 C          61.4492   84.8687    6.5337 C.ar    1  UNL1       -0.0000
      3 C          60.2498   85.4640    7.2095 C.ar    1  UNL1       -0.0003
      4 C          60.3917   86.1128    8.5545 C.ar    1  UNL1       -0.0029
      5 C          61.7331   86.1661    9.2237 C.ar    1  UNL1       -0.0061
      6 C          62.9325   85.5708    8.5478 C.ar    1  UNL1       -0.0029
      7 C          62.7906   84.9220    7.2028 C.ar    1  UNL1       -0.0003
      8 N          61.1795   88.1132   10.8522 N.3     1  UNL1       -0.2690
      9 C          60.0029   88.3026   11.7633 C.3     1  UNL1        0.0724
     10 C          59.6346   89.7566   11.7487 C.3     1  UNL1        0.0188
     11 C          60.5835   90.4660   10.8286 C.3     1  UNL1        0.0188
     12 C          61.5383   89.4503   10.2746 C.3     1  UNL1        0.0724
     13 C          62.7124   86.1653   11.6301 C.3     1  UNL1        0.0991
     14 C          62.9333   84.6818   11.6077 C.ar    1  UNL1       -0.0061
     15 C          62.1293   83.7902   12.5070 C.ar    1  UNL1       -0.0029
     16 C          62.3502   82.3067   12.4847 C.ar    1  UNL1       -0.0003
     17 C          63.3751   81.7148   11.5631 C.ar    1  UNL1       -0.0000
     18 C          64.1791   82.6064   10.6639 C.ar    1  UNL1       -0.0003
     19 C          63.9582   84.0899   10.6862 C.ar    1  UNL1       -0.0029
     20 N          63.3290   86.9991   12.7139 N.3     1  UNL1       -0.2690
     21 C          63.9053   86.4868   14.0005 C.3     1  UNL1        0.0724
     22 C          64.4100   87.6627   14.7831 C.3     1  UNL1        0.0188
     23 C          64.1456   88.9019   13.9801 C.3     1  UNL1        0.0188
     24 C          63.4775   88.4917   12.7013 C.3     1  UNL1        0.0724
@<TRIPOS>BOND
     1     2     3   ar
     2     3     4   ar
     3     4     5   ar
     4     5     1    1
     5     1    13    1
     6    13    14    1
     7    14    15   ar
     8    15    16   ar
     9    16    17   ar
    10    17    18   ar
    11    18    19   ar
    12    13    20    1
    13    20    21    1
    14    21    22    1
    15    22    23    1
    16    23    24    1
    17     1     8    1
    18     8     9    1
    19     9    10    1
    20    10    11    1
    21    11    12    1
    22     5     6   ar
    23     6     7   ar
    24     7     2   ar
    25    19    14   ar
    26    24    20    1
    27    12     8    1
@<TRIPOS>MOLECULE
*****
 24 27 0 0 0
SMALL
GASTEIGER

@<TRIPOS>ATOM
      1 C          62.7374   85.9385   11.5745 C.3     1  UNL1        0.0991
      2 C          63.1918   81.4617   11.5382 C.ar    1  UNL1       -0.0000
      3 C          62.3260   82.1193   12.5716 C.ar    1  UNL1       -0.0003
      4 C          62.1745   83.6116   12.5837 C.ar    1  UNL1       -0.0029
      5 C          62.8889   84.4462   11.5624 C.ar    1  UNL1       -0.0061
      6 C          63.7547   83.7886   10.5291 C.ar    1  UNL1       -0.0029
      7 C          63.9062   82.2963   10.5170 C.ar    1  UNL1       -0.0003
      8 N          63.3430   86.7449   12.6849 N.3     1  UNL1       -0.2690
      9 C          63.9330   86.1983   13.9511 C.3     1  UNL1        0.0724
     10 C          64.4196   87.3550   14.7729 C.3     1  UNL1        0.0188
     11 C          64.1304   88.6165   14.0145 C.3     1  UNL1        0.0188
     12 C          63.4650   88.2394   12.7241 C.3     1  UNL1        0.0724
     13 C          61.9804   86.6244   10.4762 C.3     1  UNL1        0.0991
     14 C          61.2894   87.9289   10.7428 C.ar    1  UNL1       -0.0061
     15 C          61.8080   89.1927   10.1230 C.ar    1  UNL1       -0.0029
     16 C          61.1170   90.4971   10.3896 C.ar    1  UNL1       -0.0003
     17 C          59.9076   90.5377   11.2760 C.ar    1  UNL1       -0.0000
     18 C          59.3891   89.2740   11.8957 C.ar    1  UNL1       -0.0003
     19 C          60.0800   87.9696   11.6291 C.ar    1  UNL1       -0.0029
     20 N          61.9142   86.0059    9.1112 N.3     1  UNL1       -0.2690
     21 C          63.0724   85.4457    8.3400 C.3     1  UNL1        0.0724
     22 C          62.5522   84.9326    7.0300 C.3     1  UNL1        0.0188
     23 C          61.0725   85.1758    6.9915 C.3     1  UNL1        0.0188
     24 C          60.6782   85.8392    8.2777 C.3     1  UNL1        0.0724
@<TRIPOS>BOND
     1     2     3   ar
     2     3     4   ar
     3     4     5   ar
     4     5     1    1
     5     1    13    1
     6    13    14    1
     7    14    15   ar
     8    15    16   ar
     9    16    17   ar
    10    17    18   ar
    11    18    19   ar
    12    13    20    1
    13    20    21    1
    14    21    22    1
    15    22    23    1
    16    23    24    1
    17     1     8    1
    18     8     9    1
    19     9    10    1
    20    10    11    1
    21    11    12    1
    22     5     6   ar
    23     6     7   ar
    24     7     2   ar
    25    19    14   ar
    26    24    20    1
    27    12     8    1
@<TRIPOS>MOLECULE
*****
 24 27 0 0 0
SMALL
GASTEIGER

@<TRIPOS>ATOM
      1 C          61.9994   86.6138   10.4771 C.3     1  UNL1        0.0991
      2 C          59.9656   90.5472   11.2780 C.ar    1  UNL1       -0.0000
      3 C          59.4184   89.2847   11.8751 C.ar    1  UNL1       -0.0003
      4 C          60.0964   87.9735   11.6082 C.ar    1  UNL1       -0.0029
      5 C          61.3215   87.9249   10.7441 C.ar    1  UNL1       -0.0061
      6 C          61.8686   89.1874   10.1469 C.ar    1  UNL1       -0.0029
      7 C          61.1907   90.4986   10.4139 C.ar    1  UNL1       -0.0003
      8 N          61.9248   85.9949    9.1128 N.3     1  UNL1       -0.2690
      9 C          63.0769   85.4271    8.3379 C.3     1  UNL1        0.0724
     10 C          62.5491   84.9164    7.0300 C.3     1  UNL1        0.0188
     11 C          61.0707   85.1686    6.9965 C.3     1  UNL1        0.0188
     12 C          60.6849   85.8351    8.2838 C.3     1  UNL1        0.0724
     13 C          62.7521   85.9215   11.5745 C.3     1  UNL1        0.0991
     14 C          62.9001   84.4289   11.5565 C.ar    1  UNL1       -0.0061
     15 C          62.1819   83.5917   12.5730 C.ar    1  UNL1       -0.0029
     16 C          62.3299   82.0991   12.5551 C.ar    1  UNL1       -0.0003
     17 C          63.1962   81.4438   11.5206 C.ar    1  UNL1       -0.0000
     18 C          63.9144   82.2810   10.5041 C.ar    1  UNL1       -0.0003
     19 C          63.7664   83.7735   10.5221 C.ar    1  UNL1       -0.0029
     20 N          63.3567   86.7217   12.6899 N.3     1  UNL1       -0.2690
     21 C          63.4739   88.2163   12.7397 C.3     1  UNL1        0.0724
     22 C          64.1399   88.5862   14.0319 C.3     1  UNL1        0.0188
     23 C          64.4343   87.3201   14.7807 C.3     1  UNL1        0.0188
     24 C          63.9502   86.1679   13.9512 C.3     1  UNL1        0.0724
@<TRIPOS>BOND
     1     2     3   ar
     2     3     4   ar
     3     4     5   ar
     4     5     1    1
     5     1    13    1
     6    13    14    1
     7    14    15   ar
     8    15    16   ar
     9    16    17   ar
    10    17    18   ar
    11    18    19   ar
    12    13    20    1
    13    20    21    1
    14    21    22    1
    15    22    23    1
    16    23    24    1
    17     1     8    1
    18     8     9    1
    19     9    10    1
    20    10    11    1
    21    11    12    1
    22     5     6   ar
    23     6     7   ar
    24     7     2   ar
    25    19    14   ar
    26    24    20    1
    27    12     8    1
@<TRIPOS>MOLECULE
*****
 24 27 0 0 0
SMALL
GASTEIGER

@<TRIPOS>ATOM
      1 C          61.8145   86.8195   10.4629 C.3     1  UNL1        0.0991
      2 C          61.4921   84.7921    6.4585 C.ar    1  UNL1       -0.0000
      3 C          62.8148   84.8546    7.1632 C.ar    1  UNL1       -0.0003
      4 C          62.9222   85.5305    8.4980 C.ar    1  UNL1       -0.0029
      5 C          61.7070   86.1437    9.1281 C.ar    1  UNL1       -0.0061
      6 C          60.3844   86.0812    8.4234 C.ar    1  UNL1       -0.0029
      7 C          60.2769   85.4054    7.0886 C.ar    1  UNL1       -0.0003
      8 N          61.0534   88.0850   10.7263 N.3     1  UNL1       -0.2690
      9 C          61.2656   89.4010   10.0383 C.3     1  UNL1        0.0724
     10 C          60.2899   90.3860   10.6107 C.3     1  UNL1        0.0188
     11 C          59.4746   89.6788   11.6525 C.3     1  UNL1        0.0188
     12 C          59.9465   88.2567   11.7240 C.3     1  UNL1        0.0724
     13 C          62.6830   86.2299   11.5343 C.3     1  UNL1        0.0991
     14 C          63.2778   87.1150   12.5892 C.ar    1  UNL1       -0.0061
     15 C          63.3020   88.6022   12.3943 C.ar    1  UNL1       -0.0029
     16 C          63.8969   89.4873   13.4492 C.ar    1  UNL1       -0.0003
     17 C          64.4675   88.8852   14.6990 C.ar    1  UNL1       -0.0000
     18 C          64.4434   87.3981   14.8939 C.ar    1  UNL1       -0.0003
     19 C          63.8485   86.5131   13.8390 C.ar    1  UNL1       -0.0029
     20 N          62.9567   84.7552   11.5509 N.3     1  UNL1       -0.2690
     21 C          64.1311   84.0692   10.9183 C.3     1  UNL1        0.0724
     22 C          64.0043   82.5976   11.1795 C.3     1  UNL1        0.0188
     23 C          62.7514   82.3740   11.9735 C.3     1  UNL1        0.0188
     24 C          62.1040   83.7074   12.2030 C.3     1  UNL1        0.0724
@<TRIPOS>BOND
     1     2     3   ar
     2     3     4   ar
     3     4     5   ar
     4     5     1    1
     5     1    13    1
     6    13    14    1
     7    14    15   ar
     8    15    16   ar
     9    16    17   ar
    10    17    18   ar
    11    18    19   ar
    12    13    20    1
    13    20    21    1
    14    21    22    1
    15    22    23    1
    16    23    24    1
    17     1     8    1
    18     8     9    1
    19     9    10    1
    20    10    11    1
    21    11    12    1
    22     5     6   ar
    23     6     7   ar
    24     7     2   ar
    25    19    14   ar
    26    24    20    1
    27    12     8    1
@<TRIPOS>MOLECULE
*****
 24 27 0 0 0
SMALL
GASTEIGER

@<TRIPOS>ATOM
      1 C          62.9825   85.1516   12.6252 C.3     1  UNL1        0.0991
      2 C          63.6360   81.2361   10.5059 C.ar    1  UNL1       -0.0000
      3 C          62.5948   81.3427   11.5804 C.ar    1  UNL1       -0.0003
      4 C          62.3770   82.6479   12.2868 C.ar    1  UNL1       -0.0029
      5 C          63.2003   83.8465   11.9187 C.ar    1  UNL1       -0.0061
      6 C          64.2415   83.7398   10.8443 C.ar    1  UNL1       -0.0029
      7 C          64.4593   82.4347   10.1378 C.ar    1  UNL1       -0.0003
      8 N          63.0525   85.2150   14.1222 N.3     1  UNL1       -0.2690
      9 C          64.2715   85.5365   14.9351 C.3     1  UNL1        0.0724
     10 C          63.8882   85.4882   16.3845 C.3     1  UNL1        0.0188
     11 C          62.4322   85.1369   16.4674 C.3     1  UNL1        0.0188
     12 C          61.9158   84.9680   15.0692 C.3     1  UNL1        0.0724
     13 C          62.6947   86.3935   11.8346 C.3     1  UNL1        0.0991
     14 C          61.9971   86.2947   10.5104 C.ar    1  UNL1       -0.0061
     15 C          62.7053   85.6938    9.3325 C.ar    1  UNL1       -0.0029
     16 C          62.0076   85.5950    8.0083 C.ar    1  UNL1       -0.0003
     17 C          60.6017   86.0972    7.8620 C.ar    1  UNL1       -0.0000
     18 C          59.8936   86.6981    9.0399 C.ar    1  UNL1       -0.0003
     19 C          60.5912   86.7968   10.3641 C.ar    1  UNL1       -0.0029
     20 N          63.1046   87.7341   12.3683 N.3     1  UNL1       -0.2690
     21 C          62.7587   89.0649   11.7689 C.3     1  UNL1        0.0724
     22 C          63.3727   90.1326   12.6252 C.3     1  UNL1        0.0188
     23 C          64.0981   89.4616   13.7537 C.3     1  UNL1        0.0188
     24 C          63.9324   87.9793   13.5949 C.3     1  UNL1        0.0724
@<TRIPOS>BOND
     1     2     3   ar
     2     3     4   ar
     3     4     5   ar
     4     5     1    1
     5     1    13    1
     6    13    14    1
     7    14    15   ar
     8    15    16   ar
     9    16    17   ar
    10    17    18   ar
    11    18    19   ar
    12    13    20    1
    13    20    21    1
    14    21    22    1
    15    22    23    1
    16    23    24    1
    17     1     8    1
    18     8     9    1
    19     9    10    1
    20    10    11    1
    21    11    12    1
    22     5     6   ar
    23     6     7   ar
    24     7     2   ar
    25    19    14   ar
    26    24    20    1
    27    12     8    1
@<TRIPOS>MOLECULE
*****
 24 27 0 0 0
SMALL
GASTEIGER

@<TRIPOS>ATOM
      1 C          62.6947   86.3857   11.8290 C.3     1  UNL1        0.0991
      2 C          60.6132   86.0861    7.8506 C.ar    1  UNL1       -0.0000
      3 C          59.9008   86.6859    9.0264 C.ar    1  UNL1       -0.0003
      4 C          60.5946   86.7857   10.3526 C.ar    1  UNL1       -0.0029
      5 C          62.0008   86.2858   10.5028 C.ar    1  UNL1       -0.0061
      6 C          62.7132   85.6861    9.3270 C.ar    1  UNL1       -0.0029
      7 C          62.0194   85.5862    8.0008 C.ar    1  UNL1       -0.0003
      8 N          63.1018   87.7268   12.3633 N.3     1  UNL1       -0.2690
      9 C          63.9316   87.9730   13.5885 C.3     1  UNL1        0.0724
     10 C          64.0933   89.4556   13.7487 C.3     1  UNL1        0.0188
     11 C          63.3635   90.1259   12.6225 C.3     1  UNL1        0.0188
     12 C          62.7508   89.0574   11.7663 C.3     1  UNL1        0.0724
     13 C          62.9813   85.1444   12.6208 C.3     1  UNL1        0.0991
     14 C          63.1975   83.8383   11.9157 C.ar    1  UNL1       -0.0061
     15 C          62.3732   82.6408   12.2857 C.ar    1  UNL1       -0.0029
     16 C          62.5894   81.3346   11.5806 C.ar    1  UNL1       -0.0003
     17 C          63.6299   81.2259   10.5055 C.ar    1  UNL1       -0.0000
     18 C          64.4541   82.4233   10.1356 C.ar    1  UNL1       -0.0003
     19 C          64.2379   83.7294   10.8407 C.ar    1  UNL1       -0.0029
     20 N          63.0519   85.2093   14.1178 N.3     1  UNL1       -0.2690
     21 C          61.9159   84.9617   15.0655 C.3     1  UNL1        0.0724
     22 C          62.4327   85.1325   16.4633 C.3     1  UNL1        0.0188
     23 C          63.8881   85.4858   16.3794 C.3     1  UNL1        0.0188
     24 C          64.2708   85.5332   14.9298 C.3     1  UNL1        0.0724
@<TRIPOS>BOND
     1     2     3   ar
     2     3     4   ar
     3     4     5   ar
     4     5     1    1
     5     1    13    1
     6    13    14    1
     7    14    15   ar
     8    15    16   ar
     9    16    17   ar
    10    17    18   ar
    11    18    19   ar
    12    13    20    1
    13    20    21    1
    14    21    22    1
    15    22    23    1
    16    23    24    1
    17     1     8    1
    18     8     9    1
    19     9    10    1
    20    10    11    1
    21    11    12    1
    22     5     6   ar
    23     6     7   ar
    24     7     2   ar
    25    19    14   ar
    26    24    20    1
    27    12     8    1
@<TRIPOS>MOLECULE
*****
 24 27 0 0 0
SMALL
GASTEIGER

@<TRIPOS>ATOM
      1 C          62.7145   86.4178   11.8607 C.3     1  UNL1        0.0991
      2 C          64.0021   90.4245   13.4539 C.ar    1  UNL1       -0.0000
      3 C          63.1968   90.3431   12.1911 C.ar    1  UNL1       -0.0003
      4 C          62.7676   89.0075   11.6600 C.ar    1  UNL1       -0.0029
      5 C          63.1437   87.7533   12.3918 C.ar    1  UNL1       -0.0061
      6 C          63.9489   87.8347   13.6547 C.ar    1  UNL1       -0.0029
      7 C          64.3781   89.1703   14.1858 C.ar    1  UNL1       -0.0003
      8 N          62.0103   86.3271   10.5394 N.3     1  UNL1       -0.2690
      9 C          60.5586   86.6131   10.2925 C.3     1  UNL1        0.0724
     10 C          60.2853   86.3973    8.8335 C.3     1  UNL1        0.0188
     11 C          61.5680   85.9779    8.1786 C.3     1  UNL1        0.0188
     12 C          62.6341   85.9345    9.2330 C.3     1  UNL1        0.0724
     13 C          62.9894   85.1728   12.6510 C.3     1  UNL1        0.0991
     14 C          63.2008   83.8670   11.9438 C.ar    1  UNL1       -0.0061
     15 C          64.1790   83.7778   10.8100 C.ar    1  UNL1       -0.0029
     16 C          64.3904   82.4719   10.1029 C.ar    1  UNL1       -0.0003
     17 C          63.6236   81.2553   10.5295 C.ar    1  UNL1       -0.0000
     18 C          62.6456   81.3445   11.6632 C.ar    1  UNL1       -0.0003
     19 C          62.4342   82.6504   12.3704 C.ar    1  UNL1       -0.0029
     20 N          63.0530   85.2337   14.1484 N.3     1  UNL1       -0.2690
     21 C          64.2858   85.4698   14.9697 C.3     1  UNL1        0.0724
     22 C          63.8896   85.4512   16.4163 C.3     1  UNL1        0.0188
     23 C          62.4119   85.2036   16.4891 C.3     1  UNL1        0.0188
     24 C          61.8949   85.0692   15.0875 C.3     1  UNL1        0.0724
@<TRIPOS>BOND
     1     2     3   ar
     2     3     4   ar
     3     4     5   ar
     4     5     1    1
     5     1    13    1
     6    13    14    1
     7    14    15   ar
     8    15    16   ar
     9    16    17   ar
    10    17    18   ar
    11    18    19   ar
    12    13    20    1
    13    20    21    1
    14    21    22    1
    15    22    23    1
    16    23    24    1
    17     1     8    1
    18     8     9    1
    19     9    10    1
    20    10    11    1
    21    11    12    1
    22     5     6   ar
    23     6     7   ar
    24     7     2   ar
    25    19    14   ar
    26    24    20    1
    27    12     8    1
@<TRIPOS>MOLECULE
*****
 24 27 0 0 0
SMALL
GASTEIGER

@<TRIPOS>ATOM
      1 C          62.2789   87.6086   11.3452 C.3     1  UNL1        0.0991
      2 C          64.4413   85.2569   14.5143 C.ar    1  UNL1       -0.0000
      3 C          63.6732   84.5416   13.4428 C.ar    1  UNL1       -0.0003
      4 C          62.9524   85.3256   12.3864 C.ar    1  UNL1       -0.0029
      5 C          62.9997   86.8247   12.4016 C.ar    1  UNL1       -0.0061
      6 C          63.7679   87.5399   13.4732 C.ar    1  UNL1       -0.0029
      7 C          64.4887   86.7560   14.5296 C.ar    1  UNL1       -0.0003
      8 N          61.9198   86.9578   10.0424 N.3     1  UNL1       -0.2690
      9 C          62.8262   86.1082    9.2018 C.3     1  UNL1        0.0724
     10 C          62.0578   85.6676    7.9912 C.3     1  UNL1        0.0188
     11 C          60.6764   86.2450    8.0836 C.3     1  UNL1        0.0188
     12 C          60.5911   87.0424    9.3513 C.3     1  UNL1        0.0724
     13 C          61.9173   89.0433   11.5917 C.3     1  UNL1        0.0991
     14 C          62.9869   90.0949   11.6045 C.ar    1  UNL1       -0.0061
     15 C          63.7111   90.4126   12.8792 C.ar    1  UNL1       -0.0029
     16 C          64.7807   91.4642   12.8919 C.ar    1  UNL1       -0.0003
     17 C          65.1261   92.1980   11.6300 C.ar    1  UNL1       -0.0000
     18 C          64.4020   91.8802   10.3555 C.ar    1  UNL1       -0.0003
     19 C          63.3324   90.8287   10.3427 C.ar    1  UNL1       -0.0029
     20 N          60.4860   89.4265   11.8254 N.3     1  UNL1       -0.2690
     21 C          59.4507   88.5895   12.5165 C.3     1  UNL1        0.0724
     22 C          58.1636   89.3597   12.5273 C.3     1  UNL1        0.0188
     23 C          58.4034   90.6728   11.8428 C.3     1  UNL1        0.0188
     24 C          59.8387   90.7141   11.4090 C.3     1  UNL1        0.0724
@<TRIPOS>BOND
     1     2     3   ar
     2     3     4   ar
     3     4     5   ar
     4     5     1    1
     5     1    13    1
     6    13    14    1
     7    14    15   ar
     8    15    16   ar
     9    16    17   ar
    10    17    18   ar
    11    18    19   ar
    12    13    20    1
    13    20    21    1
    14    21    22    1
    15    22    23    1
    16    23    24    1
    17     1     8    1
    18     8     9    1
    19     9    10    1
    20    10    11    1
    21    11    12    1
    22     5     6   ar
    23     6     7   ar
    24     7     2   ar
    25    19    14   ar
    26    24    20    1
    27    12     8    1
