@<TRIPOS>MOLECULE
*****
 29 32 0 0 0
SMALL
GASTEIGER

@<TRIPOS>ATOM
      1 C          64.0589   82.7525   13.3792 C.ar    1  UNL1        0.1501
      2 N          64.4196   82.8304   14.8331 N.ar    1  UNL1       -0.1331
      3 N          64.2256   84.1130   15.5863 N.ar    1  UNL1       -0.1452
      4 C          63.6710   85.3177   14.8856 C.ar    1  UNL1        0.1222
      5 C          63.3104   85.2399   13.4318 C.ar    1  UNL1        0.0237
      6 C          62.7558   86.4446   12.7310 C.ar    1  UNL1        0.0018
      7 C          62.3952   86.3668   11.2771 C.ar    1  UNL1        0.0028
      8 C          62.5891   85.0842   10.5239 C.ar    1  UNL1        0.0002
      9 C          63.1437   83.8794   11.2246 C.ar    1  UNL1        0.0029
     10 C          63.5044   83.9573   12.6786 C.ar    1  UNL1        0.0347
     11 C          61.8406   87.5715   10.5763 C.ar    1  UNL1        0.0333
     12 C          62.2529   88.9471   11.0096 C.ar    1  UNL1       -0.0188
     13 C          63.2198   89.1180   12.1436 C.3     1  UNL1        0.0311
     14 C          61.6984   90.1519   10.3089 C.ar    1  UNL1       -0.0040
     15 C          60.7315   89.9810    9.1749 C.ar    1  UNL1        0.0057
     16 C          60.3192   88.6054    8.7416 C.ar    1  UNL1        0.0717
     17 C          59.3905   88.1286    7.6645 C.ar    1  UNL1        0.1705
     18 N          59.3711   86.6291    7.6996 N.ar    1  UNL1       -0.0621
     19 O          60.2878   86.1793    8.7983 O.2     1  UNL1       -0.3522
     20 C          60.8737   87.4007    9.4423 C.ar    1  UNL1        0.1777
     21 N          58.6170   88.9985    6.7185 N.pl3   1  UNL1       -0.3140
     22 C          59.3205   90.0699    5.9393 C.3     1  UNL1        0.1097
     23 H          57.6476   88.8662    6.6089 H       1  UNL1        0.1483
     24 N          64.2529   81.4699   12.6261 N.pl3   1  UNL1       -0.3183
     25 H          65.1556   81.1961   12.3445 H       1  UNL1        0.1482
     26 C          63.0714   80.6045   12.3018 C.3     1  UNL1        0.0705
     27 C          62.7929   80.2176   10.8796 C.3     1  UNL1        0.0212
     28 C          61.1487   81.0543   13.9904 C.3     1  UNL1        0.0017
     29 C          62.1683   80.1260   13.3999 C.3     1  UNL1        0.0195
@<TRIPOS>BOND
     1    28    29    1
     2    29    26    1
     3    26    27    1
     4    26    24    1
     5    24     1    1
     6     1     2   ar
     7     2     3   ar
     8     3     4   ar
     9     4     5   ar
    10     5     6   ar
    11     6     7   ar
    12     7    11    1
    13    11    12   ar
    14    12    13    1
    15    12    14   ar
    16    14    15   ar
    17    15    16   ar
    18    16    17   ar
    19    17    21    1
    20    21    22    1
    21    17    18   ar
    22    18    19   ar
    23    19    20   ar
    24     7     8   ar
    25     8     9   ar
    26     9    10   ar
    27    10     1   ar
    28    10     5   ar
    29    20    11   ar
    30    20    16   ar
    31    24    25    1
    32    21    23    1
@<TRIPOS>MOLECULE
*****
 29 32 0 0 0
SMALL
GASTEIGER

@<TRIPOS>ATOM
      1 C          61.7323   86.9701   10.3291 C.ar    1  UNL1        0.1501
      2 N          60.9015   87.5426    9.2192 N.ar    1  UNL1       -0.1331
      3 N          60.7071   89.0264    9.1166 N.ar    1  UNL1       -0.1452
      4 C          61.3435   89.9377   10.1238 C.ar    1  UNL1        0.1222
      5 C          62.1743   89.3651   11.2337 C.ar    1  UNL1        0.0237
      6 C          62.8108   90.2763   12.2411 C.ar    1  UNL1        0.0018
      7 C          63.6416   89.7037   13.3509 C.ar    1  UNL1        0.0028
      8 C          63.8360   88.2199   13.4535 C.ar    1  UNL1        0.0002
      9 C          63.1996   87.3087   12.4463 C.ar    1  UNL1        0.0029
     10 C          62.3687   87.8813   11.3363 C.ar    1  UNL1        0.0347
     11 C          64.2781   90.6150   14.3583 C.ar    1  UNL1        0.0333
     12 C          63.7850   90.6280   15.7749 C.ar    1  UNL1       -0.0188
     13 C          62.6555   89.7297   16.1841 C.3     1  UNL1        0.0311
     14 C          64.4214   91.5391   16.7822 C.ar    1  UNL1       -0.0040
     15 C          65.5508   92.4373   16.3729 C.ar    1  UNL1        0.0057
     16 C          66.0439   92.4243   14.9563 C.ar    1  UNL1        0.0717
     17 C          67.1315   93.1920   14.2650 C.ar    1  UNL1        0.1705
     18 N          67.1672   92.7552   12.8305 N.ar    1  UNL1       -0.0621
     19 O          66.1018   91.7177   12.6352 O.2     1  UNL1       -0.3522
     20 C          65.4075   91.5132   13.9490 C.ar    1  UNL1        0.1777
     21 N          68.0263   94.2166   14.8973 N.pl3   1  UNL1       -0.3140
     22 C          69.0252   93.8011   15.9363 C.3     1  UNL1        0.1097
     23 H          67.9579   95.1617   14.6304 H       1  UNL1        0.1483
     24 N          61.9267   85.4862   10.4317 N.pl3   1  UNL1       -0.3183
     25 H          61.3902   84.9625   11.0697 H       1  UNL1        0.1482
     26 C          62.9386   84.8005    9.5623 C.3     1  UNL1        0.0705
     27 C          63.0914   85.2060    8.1263 C.3     1  UNL1        0.0212
     28 C          63.8593   83.4971   11.6126 C.3     1  UNL1        0.0017
     29 C          63.7977   83.7092   10.1290 C.3     1  UNL1        0.0195
@<TRIPOS>BOND
     1    28    29    1
     2    29    26    1
     3    26    27    1
     4    26    24    1
     5    24     1    1
     6     1     2   ar
     7     2     3   ar
     8     3     4   ar
     9     4     5   ar
    10     5     6   ar
    11     6     7   ar
    12     7    11    1
    13    11    12   ar
    14    12    13    1
    15    12    14   ar
    16    14    15   ar
    17    15    16   ar
    18    16    17   ar
    19    17    21    1
    20    21    22    1
    21    17    18   ar
    22    18    19   ar
    23    19    20   ar
    24     7     8   ar
    25     8     9   ar
    26     9    10   ar
    27    10     1   ar
    28    10     5   ar
    29    20    11   ar
    30    20    16   ar
    31    24    25    1
    32    21    23    1
@<TRIPOS>MOLECULE
*****
 29 32 0 0 0
SMALL
GASTEIGER

@<TRIPOS>ATOM
      1 C          65.6931   93.6088   12.4653 C.ar    1  UNL1        0.1501
      2 N          66.2474   93.9223   13.8234 N.ar    1  UNL1       -0.1331
      3 N          66.0621   92.9513   14.9516 N.ar    1  UNL1       -0.1452
      4 C          65.3226   91.6667   14.7216 C.ar    1  UNL1        0.1222
      5 C          64.7683   91.3532   13.3636 C.ar    1  UNL1        0.0237
      6 C          64.0287   90.0686   13.1336 C.ar    1  UNL1        0.0018
      7 C          63.4744   89.7551   11.7755 C.ar    1  UNL1        0.0028
      8 C          63.6597   90.7261   10.6474 C.ar    1  UNL1        0.0002
      9 C          64.3992   92.0107   10.8773 C.ar    1  UNL1        0.0029
     10 C          64.9536   92.3242   12.2354 C.ar    1  UNL1        0.0347
     11 C          62.7348   88.4704   11.5455 C.ar    1  UNL1        0.0333
     12 C          61.6737   88.3949   10.4880 C.ar    1  UNL1       -0.0188
     13 C          61.3522   89.6040    9.6605 C.3     1  UNL1        0.0311
     14 C          60.9341   87.1104   10.2580 C.ar    1  UNL1       -0.0040
     15 C          61.2556   85.9014   11.0856 C.ar    1  UNL1        0.0057
     16 C          62.3167   85.9769   12.1431 C.ar    1  UNL1        0.0717
     17 C          62.8474   84.9575   13.1071 C.ar    1  UNL1        0.1705
     18 N          63.9149   85.6121   13.9328 N.ar    1  UNL1       -0.0621
     19 O          64.0440   87.0359   13.4792 O.2     1  UNL1       -0.3522
     20 C          63.0563   87.2614   12.3731 C.ar    1  UNL1        0.1777
     21 N          62.3906   83.5335   13.2246 N.pl3   1  UNL1       -0.3140
     22 C          62.3992   82.8510   14.5603 C.3     1  UNL1        0.1097
     23 H          62.0852   83.0469   12.4251 H       1  UNL1        0.1483
     24 N          65.8784   94.5799   11.3372 N.pl3   1  UNL1       -0.3183
     25 H          65.3031   95.3763   11.2737 H       1  UNL1        0.1482
     26 C          66.9401   94.3375   10.3057 C.3     1  UNL1        0.0705
     27 C          67.3005   95.4198    9.3317 C.3     1  UNL1        0.0212
     28 C          68.3932   92.6151    9.0127 C.3     1  UNL1        0.0017
     29 C          67.6415   93.0128   10.2483 C.3     1  UNL1        0.0195
@<TRIPOS>BOND
     1    28    29    1
     2    29    26    1
     3    26    27    1
     4    26    24    1
     5    24     1    1
     6     1     2   ar
     7     2     3   ar
     8     3     4   ar
     9     4     5   ar
    10     5     6   ar
    11     6     7   ar
    12     7    11    1
    13    11    12   ar
    14    12    13    1
    15    12    14   ar
    16    14    15   ar
    17    15    16   ar
    18    16    17   ar
    19    17    21    1
    20    21    22    1
    21    17    18   ar
    22    18    19   ar
    23    19    20   ar
    24     7     8   ar
    25     8     9   ar
    26     9    10   ar
    27    10     1   ar
    28    10     5   ar
    29    20    11   ar
    30    20    16   ar
    31    24    25    1
    32    21    23    1
@<TRIPOS>MOLECULE
*****
 29 32 0 0 0
SMALL
GASTEIGER

@<TRIPOS>ATOM
      1 C          65.1102   92.4623   11.5163 C.ar    1  UNL1        0.1501
      2 N          64.3695   92.6473   10.2251 N.ar    1  UNL1       -0.1331
      3 N          63.2689   91.7000    9.8495 N.ar    1  UNL1       -0.1452
      4 C          62.9088   90.5677   10.7650 C.ar    1  UNL1        0.1222
      5 C          63.6494   90.3827   12.0562 C.ar    1  UNL1        0.0237
      6 C          63.2894   89.2504   12.9718 C.ar    1  UNL1        0.0018
      7 C          64.0300   89.0654   14.2630 C.ar    1  UNL1        0.0028
      8 C          65.1307   90.0127   14.6386 C.ar    1  UNL1        0.0002
      9 C          65.4908   91.1450   13.7231 C.ar    1  UNL1        0.0029
     10 C          64.7501   91.3300   12.4319 C.ar    1  UNL1        0.0347
     11 C          63.6700   87.9331   15.1786 C.ar    1  UNL1        0.0333
     12 C          63.2388   88.2157   16.5872 C.ar    1  UNL1       -0.0188
     13 C          63.1676   89.6306   17.0802 C.3     1  UNL1        0.0311
     14 C          62.8788   87.0834   17.5028 C.ar    1  UNL1       -0.0040
     15 C          62.9499   85.6686   17.0098 C.ar    1  UNL1        0.0057
     16 C          63.3811   85.3860   15.6012 C.ar    1  UNL1        0.0717
     17 C          63.5457   84.1040   14.8399 C.ar    1  UNL1        0.1705
     18 N          64.0075   84.4440   13.4539 N.ar    1  UNL1       -0.0621
     19 O          64.1282   85.9360   13.3585 O.2     1  UNL1       -0.3522
     20 C          63.7412   86.5182   14.6856 C.ar    1  UNL1        0.1777
     21 N          63.2929   82.7243   15.3715 N.pl3   1  UNL1       -0.3140
     22 C          62.4428   81.7646   14.5928 C.3     1  UNL1        0.1097
     23 H          63.6849   82.4486   16.2315 H       1  UNL1        0.1483
     24 N          66.2109   93.4096   11.8920 N.pl3   1  UNL1       -0.3183
     25 H          66.6523   93.3287   12.7683 H       1  UNL1        0.1482
     26 C          66.6390   94.4802   10.9326 C.3     1  UNL1        0.0705
     27 C          66.2974   95.9145   11.2081 C.3     1  UNL1        0.0212
     28 C          68.1159   92.7960    9.6162 C.3     1  UNL1        0.0017
     29 C          67.4088   94.1164    9.6976 C.3     1  UNL1        0.0195
@<TRIPOS>BOND
     1    28    29    1
     2    29    26    1
     3    26    27    1
     4    26    24    1
     5    24     1    1
     6     1     2   ar
     7     2     3   ar
     8     3     4   ar
     9     4     5   ar
    10     5     6   ar
    11     6     7   ar
    12     7    11    1
    13    11    12   ar
    14    12    13    1
    15    12    14   ar
    16    14    15   ar
    17    15    16   ar
    18    16    17   ar
    19    17    21    1
    20    21    22    1
    21    17    18   ar
    22    18    19   ar
    23    19    20   ar
    24     7     8   ar
    25     8     9   ar
    26     9    10   ar
    27    10     1   ar
    28    10     5   ar
    29    20    11   ar
    30    20    16   ar
    31    24    25    1
    32    21    23    1
@<TRIPOS>MOLECULE
*****
 29 32 0 0 0
SMALL
GASTEIGER

@<TRIPOS>ATOM
      1 C          62.0585   90.4226   11.7893 C.ar    1  UNL1        0.1501
      2 N          60.9987   91.0645   10.9439 N.ar    1  UNL1       -0.1331
      3 N          60.1532   90.2231   10.0343 N.ar    1  UNL1       -0.1452
      4 C          60.3676   88.7399    9.9701 C.ar    1  UNL1        0.1222
      5 C          61.4274   88.0981   10.8155 C.ar    1  UNL1        0.0237
      6 C          61.6418   86.6148   10.7514 C.ar    1  UNL1        0.0018
      7 C          62.7016   85.9730   11.5968 C.ar    1  UNL1        0.0028
      8 C          63.5471   86.8144   12.5064 C.ar    1  UNL1        0.0002
      9 C          63.3327   88.2975   12.5706 C.ar    1  UNL1        0.0029
     10 C          62.2728   88.9395   11.7251 C.ar    1  UNL1        0.0347
     11 C          62.9160   84.4897   11.5327 C.ar    1  UNL1        0.0333
     12 C          63.2940   83.8421   10.2336 C.ar    1  UNL1       -0.0188
     13 C          63.4576   84.6777    8.9986 C.3     1  UNL1        0.0311
     14 C          63.5085   82.3589   10.1694 C.ar    1  UNL1       -0.0040
     15 C          63.3449   81.5234   11.4044 C.ar    1  UNL1        0.0057
     16 C          62.9669   82.1710   12.7035 C.ar    1  UNL1        0.0717
     17 C          62.7357   81.6095   14.0751 C.ar    1  UNL1        0.1705
     18 N          62.3785   82.7457   14.9869 N.ar    1  UNL1       -0.0621
     19 O          62.3888   84.0093   14.1789 O.2     1  UNL1       -0.3522
     20 C          62.7524   83.6542   12.7676 C.ar    1  UNL1        0.1777
     21 N          62.8430   80.1653   14.4662 N.pl3   1  UNL1       -0.3140
     22 C          62.2036   79.1084   13.6153 C.3     1  UNL1        0.1097
     23 H          63.3331   79.9112   15.2813 H       1  UNL1        0.1483
     24 N          62.9039   91.2640   12.6989 N.pl3   1  UNL1       -0.3183
     25 H          62.5507   91.5536   13.5710 H       1  UNL1        0.1482
     26 C          64.2874   91.6641   12.2797 C.3     1  UNL1        0.0705
     27 C          64.5783   91.9599   10.8382 C.3     1  UNL1        0.0212
     28 C          65.4406   90.7902   14.4376 C.3     1  UNL1        0.0017
     29 C          65.3802   91.7683   13.3021 C.3     1  UNL1        0.0195
@<TRIPOS>BOND
     1    28    29    1
     2    29    26    1
     3    26    27    1
     4    26    24    1
     5    24     1    1
     6     1     2   ar
     7     2     3   ar
     8     3     4   ar
     9     4     5   ar
    10     5     6   ar
    11     6     7   ar
    12     7    11    1
    13    11    12   ar
    14    12    13    1
    15    12    14   ar
    16    14    15   ar
    17    15    16   ar
    18    16    17   ar
    19    17    21    1
    20    21    22    1
    21    17    18   ar
    22    18    19   ar
    23    19    20   ar
    24     7     8   ar
    25     8     9   ar
    26     9    10   ar
    27    10     1   ar
    28    10     5   ar
    29    20    11   ar
    30    20    16   ar
    31    24    25    1
    32    21    23    1
@<TRIPOS>MOLECULE
*****
 29 32 0 0 0
SMALL
GASTEIGER

@<TRIPOS>ATOM
      1 C          64.4740   90.6243   13.8904 C.ar    1  UNL1        0.1501
      2 N          64.0053   91.5679   12.8227 N.ar    1  UNL1       -0.1331
      3 N          63.2094   91.0506   11.6613 N.ar    1  UNL1       -0.1452
      4 C          62.8821   89.5898   11.5676 C.ar    1  UNL1        0.1222
      5 C          63.3507   88.6462   12.6353 C.ar    1  UNL1        0.0237
      6 C          63.0234   87.1853   12.5417 C.ar    1  UNL1        0.0018
      7 C          63.4921   86.2418   13.6094 C.ar    1  UNL1        0.0028
      8 C          64.2880   86.7591   14.7708 C.ar    1  UNL1        0.0002
      9 C          64.6154   88.2199   14.8645 C.ar    1  UNL1        0.0029
     10 C          64.1467   89.1635   13.7967 C.ar    1  UNL1        0.0347
     11 C          63.1648   84.7809   13.5157 C.ar    1  UNL1        0.0333
     12 C          62.6019   84.0607   14.7050 C.ar    1  UNL1       -0.0188
     13 C          62.3663   84.8014   15.9880 C.3     1  UNL1        0.0311
     14 C          62.2746   82.5998   14.6114 C.ar    1  UNL1       -0.0040
     15 C          62.5102   81.8592   13.3285 C.ar    1  UNL1        0.0057
     16 C          63.0731   82.5794   12.1392 C.ar    1  UNL1        0.0717
     17 C          63.4104   82.1168   10.7528 C.ar    1  UNL1        0.1705
     18 N          63.9461   83.2917    9.9895 N.ar    1  UNL1       -0.0621
     19 O          63.9399   84.4804   10.9042 O.2     1  UNL1       -0.3522
     20 C          63.4004   84.0403   12.2328 C.ar    1  UNL1        0.1777
     21 N          63.2415   80.7237   10.2226 N.pl3   1  UNL1       -0.3140
     22 C          62.8401   79.6129   11.1472 C.3     1  UNL1        0.1097
     23 H          63.3942   80.5385    9.2678 H       1  UNL1        0.1483
     24 N          65.2700   91.1416   15.0518 N.pl3   1  UNL1       -0.3183
     25 H          64.9566   90.9853   15.9720 H       1  UNL1        0.1482
     26 C          66.5433   91.8970   14.8114 C.3     1  UNL1        0.0705
     27 C          67.2172   91.8243   13.4732 C.3     1  UNL1        0.0212
     28 C          68.5079   93.3228   15.7375 C.3     1  UNL1        0.0017
     29 C          67.1428   92.7252   15.9090 C.3     1  UNL1        0.0195
@<TRIPOS>BOND
     1    28    29    1
     2    29    26    1
     3    26    27    1
     4    26    24    1
     5    24     1    1
     6     1     2   ar
     7     2     3   ar
     8     3     4   ar
     9     4     5   ar
    10     5     6   ar
    11     6     7   ar
    12     7    11    1
    13    11    12   ar
    14    12    13    1
    15    12    14   ar
    16    14    15   ar
    17    15    16   ar
    18    16    17   ar
    19    17    21    1
    20    21    22    1
    21    17    18   ar
    22    18    19   ar
    23    19    20   ar
    24     7     8   ar
    25     8     9   ar
    26     9    10   ar
    27    10     1   ar
    28    10     5   ar
    29    20    11   ar
    30    20    16   ar
    31    24    25    1
    32    21    23    1
@<TRIPOS>MOLECULE
*****
 29 32 0 0 0
SMALL
GASTEIGER

@<TRIPOS>ATOM
      1 C          61.4732   87.0599   11.1562 C.ar    1  UNL1        0.1501
      2 N          60.5187   87.1913   10.0066 N.ar    1  UNL1       -0.1331
      3 N          60.4112   88.4912    9.2659 N.ar    1  UNL1       -0.1452
      4 C          61.2582   89.6597    9.6748 C.ar    1  UNL1        0.1222
      5 C          62.2127   89.5283   10.8244 C.ar    1  UNL1        0.0237
      6 C          63.0597   90.6968   11.2333 C.ar    1  UNL1        0.0018
      7 C          64.0142   90.5653   12.3829 C.ar    1  UNL1        0.0028
      8 C          64.1217   89.2654   13.1236 C.ar    1  UNL1        0.0002
      9 C          63.2747   88.0970   12.7147 C.ar    1  UNL1        0.0029
     10 C          62.3202   88.2284   11.5651 C.ar    1  UNL1        0.0347
     11 C          64.8613   91.7339   12.7918 C.ar    1  UNL1        0.0333
     12 C          65.2955   91.8821   14.2200 C.ar    1  UNL1       -0.0188
     13 C          64.8826   90.8618   15.2391 C.3     1  UNL1        0.0311
     14 C          66.1425   93.0505   14.6289 C.ar    1  UNL1       -0.0040
     15 C          66.5553   94.0707   13.6098 C.ar    1  UNL1        0.0057
     16 C          66.1211   93.9225   12.1817 C.ar    1  UNL1        0.0717
     17 C          66.3711   94.7624   10.9643 C.ar    1  UNL1        0.1705
     18 N          65.6786   94.1130    9.8029 N.ar    1  UNL1       -0.0621
     19 O          65.0006   92.8718   10.3026 O.2     1  UNL1       -0.3522
     20 C          65.2741   92.7541   11.7727 C.ar    1  UNL1        0.1777
     21 N          67.1729   96.0293   10.9166 N.pl3   1  UNL1       -0.3140
     22 C          67.2010   96.8524    9.6629 C.3     1  UNL1        0.1097
     23 H          67.6807   96.3206   11.7082 H       1  UNL1        0.1483
     24 N          61.5807   85.7600   11.8969 N.pl3   1  UNL1       -0.3183
     25 H          60.8782   85.4972   12.5346 H       1  UNL1        0.1482
     26 C          62.7586   84.8604   11.6661 C.3     1  UNL1        0.0705
     27 C          63.5264   84.3156   12.8338 C.3     1  UNL1        0.0212
     28 C          63.9479   83.2501   10.0100 C.3     1  UNL1        0.0017
     29 C          63.1686   84.5056   10.2674 C.3     1  UNL1        0.0195
@<TRIPOS>BOND
     1    28    29    1
     2    29    26    1
     3    26    27    1
     4    26    24    1
     5    24     1    1
     6     1     2   ar
     7     2     3   ar
     8     3     4   ar
     9     4     5   ar
    10     5     6   ar
    11     6     7   ar
    12     7    11    1
    13    11    12   ar
    14    12    13    1
    15    12    14   ar
    16    14    15   ar
    17    15    16   ar
    18    16    17   ar
    19    17    21    1
    20    21    22    1
    21    17    18   ar
    22    18    19   ar
    23    19    20   ar
    24     7     8   ar
    25     8     9   ar
    26     9    10   ar
    27    10     1   ar
    28    10     5   ar
    29    20    11   ar
    30    20    16   ar
    31    24    25    1
    32    21    23    1
@<TRIPOS>MOLECULE
*****
 29 32 0 0 0
SMALL
GASTEIGER

@<TRIPOS>ATOM
      1 C          66.0061   92.7207   12.4206 C.ar    1  UNL1        0.1501
      2 N          67.1237   93.5263   13.0138 N.ar    1  UNL1       -0.1331
      3 N          67.6906   93.1516   14.3511 N.ar    1  UNL1       -0.1452
      4 C          67.1399   91.9713   15.0951 C.ar    1  UNL1        0.1222
      5 C          66.0223   91.1656   14.5018 C.ar    1  UNL1        0.0237
      6 C          65.4716   89.9852   15.2458 C.ar    1  UNL1        0.0018
      7 C          64.3541   89.1796   14.6526 C.ar    1  UNL1        0.0028
      8 C          63.7872   89.5543   13.3153 C.ar    1  UNL1        0.0002
      9 C          64.3378   90.7347   12.5713 C.ar    1  UNL1        0.0029
     10 C          65.4554   91.5403   13.1646 C.ar    1  UNL1        0.0347
     11 C          63.8033   87.9992   15.3966 C.ar    1  UNL1        0.0333
     12 C          63.1188   88.1975   16.7165 C.ar    1  UNL1       -0.0188
     13 C          62.9850   89.5761   17.2924 C.3     1  UNL1        0.0311
     14 C          62.5681   87.0172   17.4605 C.ar    1  UNL1       -0.0040
     15 C          62.7019   85.6387   16.8846 C.ar    1  UNL1        0.0057
     16 C          63.3864   85.4404   15.5647 C.ar    1  UNL1        0.0717
     17 C          63.6656   84.2099   14.7536 C.ar    1  UNL1        0.1705
     18 N          64.3888   84.6297   13.5084 N.ar    1  UNL1       -0.0621
     19 O          64.5566   86.1196   13.5498 O.2     1  UNL1       -0.3522
     20 C          63.9371   86.6207   14.8207 C.ar    1  UNL1        0.1777
     21 N          63.2878   82.8059   15.1230 N.pl3   1  UNL1       -0.3140
     22 C          62.0652   82.1761   14.5242 C.3     1  UNL1        0.1097
     23 H          63.8423   82.2980   15.7584 H       1  UNL1        0.1483
     24 N          65.4392   93.0954   11.0833 N.pl3   1  UNL1       -0.3183
     25 H          64.5276   92.8151   10.8391 H       1  UNL1        0.1482
     26 C          66.2613   93.8970   10.1182 C.3     1  UNL1        0.0705
     27 C          67.4058   93.2536    9.3930 C.3     1  UNL1        0.0212
     28 C          66.2590   95.9725    8.5554 C.3     1  UNL1        0.0017
     29 C          65.9388   95.3422    9.8783 C.3     1  UNL1        0.0195
@<TRIPOS>BOND
     1    28    29    1
     2    29    26    1
     3    26    27    1
     4    26    24    1
     5    24     1    1
     6     1     2   ar
     7     2     3   ar
     8     3     4   ar
     9     4     5   ar
    10     5     6   ar
    11     6     7   ar
    12     7    11    1
    13    11    12   ar
    14    12    13    1
    15    12    14   ar
    16    14    15   ar
    17    15    16   ar
    18    16    17   ar
    19    17    21    1
    20    21    22    1
    21    17    18   ar
    22    18    19   ar
    23    19    20   ar
    24     7     8   ar
    25     8     9   ar
    26     9    10   ar
    27    10     1   ar
    28    10     5   ar
    29    20    11   ar
    30    20    16   ar
    31    24    25    1
    32    21    23    1
@<TRIPOS>MOLECULE
*****
 29 32 0 0 0
SMALL
GASTEIGER

@<TRIPOS>ATOM
      1 C          61.7202   86.2986   11.4270 C.ar    1  UNL1        0.1501
      2 N          61.9521   85.0134   12.1648 N.ar    1  UNL1       -0.1331
      3 N          62.9361   84.9650   13.2959 N.ar    1  UNL1       -0.1452
      4 C          63.6883   86.2017   13.6892 C.ar    1  UNL1        0.1222
      5 C          63.4564   87.4869   12.9513 C.ar    1  UNL1        0.0237
      6 C          64.2086   88.7237   13.3445 C.ar    1  UNL1        0.0018
      7 C          63.9768   90.0089   12.6067 C.ar    1  UNL1        0.0028
      8 C          62.9927   90.0574   11.4756 C.ar    1  UNL1        0.0002
      9 C          62.2406   88.8207   11.0824 C.ar    1  UNL1        0.0029
     10 C          62.4724   87.5354   11.8202 C.ar    1  UNL1        0.0347
     11 C          64.7290   91.2458   12.9999 C.ar    1  UNL1        0.0333
     12 C          65.0179   91.5199   14.4461 C.ar    1  UNL1       -0.0188
     13 C          64.5547   90.5571   15.4990 C.3     1  UNL1        0.0311
     14 C          65.7701   92.7566   14.8393 C.ar    1  UNL1       -0.0040
     15 C          66.2333   93.7193   13.7864 C.ar    1  UNL1        0.0057
     16 C          65.9443   93.4452   12.3402 C.ar    1  UNL1        0.0717
     17 C          66.2724   94.2055   11.0895 C.ar    1  UNL1        0.1705
     18 N          65.7230   93.4386    9.9233 N.ar    1  UNL1       -0.0621
     19 O          65.0554   92.2044   10.4533 O.2     1  UNL1       -0.3522
     20 C          65.1922   92.2084   11.9470 C.ar    1  UNL1        0.1777
     21 N          67.0189   95.5046   11.0177 N.pl3   1  UNL1       -0.3140
     22 C          67.5440   95.9961    9.7013 C.3     1  UNL1        0.1097
     23 H          67.1641   96.0347   11.8344 H       1  UNL1        0.1483
     24 N          60.7362   86.3471   10.2959 N.pl3   1  UNL1       -0.3183
     25 H          59.7995   86.5958   10.4688 H       1  UNL1        0.1482
     26 C          61.1794   86.0166    8.9016 C.3     1  UNL1        0.0705
     27 C          62.6214   85.7087    8.6260 C.3     1  UNL1        0.0212
     28 C          59.1472   87.0762    7.6778 C.3     1  UNL1        0.0017
     29 C          60.1806   85.9940    7.7826 C.3     1  UNL1        0.0195
@<TRIPOS>BOND
     1    28    29    1
     2    29    26    1
     3    26    27    1
     4    26    24    1
     5    24     1    1
     6     1     2   ar
     7     2     3   ar
     8     3     4   ar
     9     4     5   ar
    10     5     6   ar
    11     6     7   ar
    12     7    11    1
    13    11    12   ar
    14    12    13    1
    15    12    14   ar
    16    14    15   ar
    17    15    16   ar
    18    16    17   ar
    19    17    21    1
    20    21    22    1
    21    17    18   ar
    22    18    19   ar
    23    19    20   ar
    24     7     8   ar
    25     8     9   ar
    26     9    10   ar
    27    10     1   ar
    28    10     5   ar
    29    20    11   ar
    30    20    16   ar
    31    24    25    1
    32    21    23    1
