@<TRIPOS>MOLECULE
*****
 33 37 0 0 0
SMALL
GASTEIGER

@<TRIPOS>ATOM
      1 O          63.5614   87.0840   13.5464 O.2     1  UNL1       -0.2698
      2 C          62.9525   86.2589   12.4517 C.2     1  UNL1        0.2507
      3 N          62.2124   86.9278   11.3315 N.am    1  UNL1       -0.2723
      4 C          61.6035   86.1027   10.2368 C.3     1  UNL1        0.1257
      5 C          60.8634   86.7716    9.1166 C.3     1  UNL1        0.1637
      6 O          60.7321   88.2656    9.0912 O.3     1  UNL1       -0.3502
      7 C          61.3410   89.0908   10.1859 C.3     1  UNL1        0.1622
      8 C          62.0811   88.4219   11.3060 C.3     1  UNL1        0.1096
      9 C          63.0837   84.7648   12.4771 C.ar    1  UNL1        0.0753
     10 C          63.2197   84.0019   11.1928 C.ar    1  UNL1        0.0381
     11 C          63.3509   82.5079   11.2183 C.ar    1  UNL1        0.1676
     12 F          63.4869   81.7450    9.9339 F       1  UNL1       -0.2018
     13 C          63.3462   81.7768   12.5280 C.ar    1  UNL1        0.1689
     14 F          63.4775   80.2827   12.5535 F       1  UNL1       -0.2017
     15 C          63.2103   82.5398   13.8123 C.ar    1  UNL1        0.0530
     16 C          63.0790   84.0338   13.7869 C.ar    1  UNL1        0.1096
     17 N          62.9431   84.7967   15.0712 N.ar    1  UNL1       -0.1476
     18 N          61.6627   85.0695   15.8034 N.ar    1  UNL1       -0.1447
     19 C          61.9919   85.8622   17.0335 C.ar    1  UNL1        0.1446
     20 C          63.4759   86.0792   17.0617 C.ar    1  UNL1        0.1446
     21 N          64.0637   85.4207   15.8489 N.ar    1  UNL1       -0.1447
     22 C          62.6900   89.2470   12.4008 C.3     1  UNL1        0.0488
     23 C          63.6074   90.3841   12.0611 C.ar    1  UNL1       -0.0189
     24 C          63.5015   91.0602   10.7264 C.ar    1  UNL1       -0.0041
     25 C          64.4189   92.1973   10.3867 C.ar    1  UNL1        0.0013
     26 C          65.4423   92.6583   11.3818 C.ar    1  UNL1        0.0209
     27 C          65.5482   91.9821   12.7166 C.ar    1  UNL1        0.1026
     28 C          64.6308   90.8450   13.0562 C.ar    1  UNL1        0.0167
     29 N          66.5716   92.4431   13.7117 N.ar    1  UNL1       -0.1478
     30 N          68.0398   92.1389   13.6717 N.ar    1  UNL1       -0.1447
     31 C          68.6821   92.7970   14.8568 C.ar    1  UNL1        0.1446
     32 C          67.6107   93.5079   15.6293 C.ar    1  UNL1        0.1446
     33 N          66.3063   93.2892   14.9216 N.ar    1  UNL1       -0.1447
@<TRIPOS>BOND
     1     1     2    2
     2     2     9    1
     3     9    10   ar
     4    10    11   ar
     5    11    12    1
     6    11    13   ar
     7    13    14    1
     8    13    15   ar
     9    15    16   ar
    10    16    17    1
    11    17    18   ar
    12    18    19   ar
    13    19    20   ar
    14    20    21   ar
    15     2     3   am
    16     3     4    1
    17     4     5    1
    18     5     6    1
    19     6     7    1
    20     7     8    1
    21     8    22    1
    22    22    23    1
    23    23    24   ar
    24    24    25   ar
    25    25    26   ar
    26    26    27   ar
    27    27    29    1
    28    29    30   ar
    29    30    31   ar
    30    31    32   ar
    31    32    33   ar
    32    27    28   ar
    33    16     9   ar
    34    21    17   ar
    35     8     3    1
    36    28    23   ar
    37    33    29   ar
@<TRIPOS>MOLECULE
*****
 33 37 0 0 0
SMALL
GASTEIGER

@<TRIPOS>ATOM
      1 O          62.6829   90.0382   11.5305 O.2     1  UNL1       -0.2698
      2 C          62.7037   88.5387   11.5653 C.2     1  UNL1        0.2507
      3 N          63.3433   87.8241   12.7186 N.am    1  UNL1       -0.2723
      4 C          63.3641   86.3247   12.7534 C.3     1  UNL1        0.1257
      5 C          64.0038   85.6101   13.9068 C.3     1  UNL1        0.1637
      6 O          64.6226   86.3949   15.0253 O.3     1  UNL1       -0.3502
      7 C          64.6018   87.8944   14.9905 C.3     1  UNL1        0.1622
      8 C          63.9622   88.6090   13.8372 C.3     1  UNL1        0.1096
      9 C          62.0848   87.7539   10.4467 C.ar    1  UNL1        0.0753
     10 C          62.9133   86.7736    9.6704 C.ar    1  UNL1        0.0381
     11 C          62.2945   85.9888    8.5519 C.ar    1  UNL1        0.1676
     12 F          63.1230   85.0085    7.7756 F       1  UNL1       -0.2018
     13 C          60.8473   86.1843    8.2097 C.ar    1  UNL1        0.1689
     14 F          60.2284   85.3994    7.0911 F       1  UNL1       -0.2017
     15 C          60.0188   87.1646    8.9860 C.ar    1  UNL1        0.0530
     16 C          60.6376   87.9494   10.1045 C.ar    1  UNL1        0.1096
     17 N          59.8091   88.9297   10.8808 N.ar    1  UNL1       -0.1476
     18 N          59.5914   90.3720   10.5308 N.ar    1  UNL1       -0.1447
     19 C          58.7006   90.9735   11.5771 C.ar    1  UNL1        0.1446
     20 C          58.3678   89.9030   12.5737 C.ar    1  UNL1        0.1446
     21 N          59.0528   88.6399   12.1433 N.ar    1  UNL1       -0.1447
     22 C          63.9414   90.1084   13.8023 C.3     1  UNL1        0.0488
     23 C          65.2290   90.8751   13.7379 C.ar    1  UNL1       -0.0189
     24 C          66.1737   90.8536   14.9029 C.ar    1  UNL1       -0.0041
     25 C          67.4614   91.6203   14.8385 C.ar    1  UNL1        0.0013
     26 C          67.8044   92.4084   13.6092 C.ar    1  UNL1        0.0209
     27 C          66.8597   92.4298   12.4442 C.ar    1  UNL1        0.1026
     28 C          65.5720   91.6631   12.5086 C.ar    1  UNL1        0.0167
     29 N          67.2027   93.2179   11.2149 N.ar    1  UNL1       -0.1478
     30 N          66.8743   94.6613   10.9727 N.ar    1  UNL1       -0.1447
     31 C          67.4029   95.0364    9.6200 C.ar    1  UNL1        0.1446
     32 C          68.0581   93.8248    9.0261 C.ar    1  UNL1        0.1446
     33 N          67.9343   92.7008   10.0117 N.ar    1  UNL1       -0.1447
@<TRIPOS>BOND
     1     1     2    2
     2     2     9    1
     3     9    10   ar
     4    10    11   ar
     5    11    12    1
     6    11    13   ar
     7    13    14    1
     8    13    15   ar
     9    15    16   ar
    10    16    17    1
    11    17    18   ar
    12    18    19   ar
    13    19    20   ar
    14    20    21   ar
    15     2     3   am
    16     3     4    1
    17     4     5    1
    18     5     6    1
    19     6     7    1
    20     7     8    1
    21     8    22    1
    22    22    23    1
    23    23    24   ar
    24    24    25   ar
    25    25    26   ar
    26    26    27   ar
    27    27    29    1
    28    29    30   ar
    29    30    31   ar
    30    31    32   ar
    31    32    33   ar
    32    27    28   ar
    33    16     9   ar
    34    21    17   ar
    35     8     3    1
    36    28    23   ar
    37    33    29   ar
@<TRIPOS>MOLECULE
*****
 33 37 0 0 0
SMALL
GASTEIGER

@<TRIPOS>ATOM
      1 O          63.6391   87.5436   13.6069 O.2     1  UNL1       -0.2698
      2 C          63.0344   87.1865   12.2815 C.2     1  UNL1        0.2507
      3 N          62.3401   88.2370   11.4665 N.am    1  UNL1       -0.2723
      4 C          61.7354   87.8799   10.1410 C.3     1  UNL1        0.1257
      5 C          61.0411   88.9305    9.3260 C.3     1  UNL1        0.1637
      6 O          60.9515   90.3381    9.8363 O.3     1  UNL1       -0.3502
      7 C          61.5563   90.6952   11.1618 C.3     1  UNL1        0.1622
      8 C          62.2506   89.6447   11.9768 C.3     1  UNL1        0.1096
      9 C          63.1239   85.7787   11.7712 C.ar    1  UNL1        0.0753
     10 C          63.1535   85.5168   10.2945 C.ar    1  UNL1        0.0381
     11 C          63.2431   84.1092    9.7841 C.ar    1  UNL1        0.1676
     12 F          63.2727   83.8473    8.3075 F       1  UNL1       -0.2018
     13 C          63.3030   82.9635   10.7504 C.ar    1  UNL1        0.1689
     14 F          63.3925   81.5558   10.2401 F       1  UNL1       -0.2017
     15 C          63.2734   83.2254   12.2271 C.ar    1  UNL1        0.0530
     16 C          63.1838   84.6330   12.7374 C.ar    1  UNL1        0.1096
     17 N          63.1542   84.8950   14.2141 N.ar    1  UNL1       -0.1476
     18 N          61.9421   84.8361   15.0959 N.ar    1  UNL1       -0.1447
     19 C          62.3703   85.1665   16.4950 C.ar    1  UNL1        0.1446
     20 C          63.8469   85.4296   16.4780 C.ar    1  UNL1        0.1446
     21 N          64.3314   85.2617   15.0683 N.ar    1  UNL1       -0.1447
     22 C          62.8553   90.0018   13.3022 C.3     1  UNL1        0.0488
     23 C          64.1656   90.7298   13.3570 C.ar    1  UNL1       -0.0189
     24 C          65.0677   90.5621   14.5436 C.ar    1  UNL1       -0.0041
     25 C          66.3781   91.2901   14.5984 C.ar    1  UNL1        0.0013
     26 C          66.7863   92.1859   13.4666 C.ar    1  UNL1        0.0209
     27 C          65.8841   92.3537   12.2800 C.ar    1  UNL1        0.1026
     28 C          64.5738   91.6256   12.2252 C.ar    1  UNL1        0.0167
     29 N          66.2922   93.2495   11.1482 N.ar    1  UNL1       -0.1478
     30 N          67.4655   93.0404   10.2373 N.ar    1  UNL1       -0.1447
     31 C          67.4972   94.1734    9.2548 C.ar    1  UNL1        0.1446
     32 C          66.3435   95.0826    9.5584 C.ar    1  UNL1        0.1446
     33 N          65.5988   94.5117   10.7286 N.ar    1  UNL1       -0.1447
@<TRIPOS>BOND
     1     1     2    2
     2     2     9    1
     3     9    10   ar
     4    10    11   ar
     5    11    12    1
     6    11    13   ar
     7    13    14    1
     8    13    15   ar
     9    15    16   ar
    10    16    17    1
    11    17    18   ar
    12    18    19   ar
    13    19    20   ar
    14    20    21   ar
    15     2     3   am
    16     3     4    1
    17     4     5    1
    18     5     6    1
    19     6     7    1
    20     7     8    1
    21     8    22    1
    22    22    23    1
    23    23    24   ar
    24    24    25   ar
    25    25    26   ar
    26    26    27   ar
    27    27    29    1
    28    29    30   ar
    29    30    31   ar
    30    31    32   ar
    31    32    33   ar
    32    27    28   ar
    33    16     9   ar
    34    21    17   ar
    35     8     3    1
    36    28    23   ar
    37    33    29   ar
@<TRIPOS>MOLECULE
*****
 33 37 0 0 0
SMALL
GASTEIGER

@<TRIPOS>ATOM
      1 O          63.6495   88.5958   12.2510 O.2     1  UNL1       -0.2698
      2 C          63.4741   87.5708   13.3320 C.2     1  UNL1        0.2507
      3 N          63.3818   88.0013   14.7659 N.am    1  UNL1       -0.2723
      4 C          63.2063   86.9763   15.8469 C.3     1  UNL1        0.1257
      5 C          63.1140   87.4069   17.2809 C.3     1  UNL1        0.1637
      6 O          63.1972   88.8624   17.6338 O.3     1  UNL1       -0.3502
      7 C          63.3726   89.8874   16.5528 C.3     1  UNL1        0.1622
      8 C          63.4649   89.4569   15.1189 C.3     1  UNL1        0.1096
      9 C          63.3909   86.1152   12.9791 C.ar    1  UNL1        0.0753
     10 C          64.1604   85.1048   13.7772 C.ar    1  UNL1        0.0381
     11 C          64.0773   83.6493   13.4243 C.ar    1  UNL1        0.1676
     12 F          64.8468   82.6390   14.2225 F       1  UNL1       -0.2018
     13 C          63.2247   83.2042   12.2733 C.ar    1  UNL1        0.1689
     14 F          63.1415   81.7487   11.9204 F       1  UNL1       -0.2017
     15 C          62.4552   84.2146   11.4752 C.ar    1  UNL1        0.0530
     16 C          62.5383   85.6701   11.8281 C.ar    1  UNL1        0.1096
     17 N          61.7688   86.6805   11.0300 N.ar    1  UNL1       -0.1476
     18 N          62.0697   87.1080    9.6240 N.ar    1  UNL1       -0.1447
     19 C          61.0502   88.1325    9.2228 C.ar    1  UNL1        0.1446
     20 C          60.1191   88.3382   10.3807 C.ar    1  UNL1        0.1446
     21 N          60.5633   87.4408   11.4976 N.ar    1  UNL1       -0.1447
     22 C          63.6404   90.4818   14.0379 C.3     1  UNL1        0.0488
     23 C          64.9561   91.1839   13.8764 C.ar    1  UNL1       -0.0189
     24 C          66.0645   90.9342   14.8556 C.ar    1  UNL1       -0.0041
     25 C          67.3803   91.6362   14.6941 C.ar    1  UNL1        0.0013
     26 C          67.5875   92.5880   13.5534 C.ar    1  UNL1        0.0209
     27 C          66.4789   92.8377   12.5742 C.ar    1  UNL1        0.1026
     28 C          65.1633   92.1356   12.7356 C.ar    1  UNL1        0.0167
     29 N          66.6861   93.7894   11.4334 N.ar    1  UNL1       -0.1478
     30 N          67.5321   93.5405   10.2200 N.ar    1  UNL1       -0.1447
     31 C          67.4526   94.7544    9.3425 C.ar    1  UNL1        0.1446
     32 C          66.5575   95.7536   10.0136 C.ar    1  UNL1        0.1446
     33 N          66.0837   95.1573   11.3059 N.ar    1  UNL1       -0.1447
@<TRIPOS>BOND
     1     1     2    2
     2     2     9    1
     3     9    10   ar
     4    10    11   ar
     5    11    12    1
     6    11    13   ar
     7    13    14    1
     8    13    15   ar
     9    15    16   ar
    10    16    17    1
    11    17    18   ar
    12    18    19   ar
    13    19    20   ar
    14    20    21   ar
    15     2     3   am
    16     3     4    1
    17     4     5    1
    18     5     6    1
    19     6     7    1
    20     7     8    1
    21     8    22    1
    22    22    23    1
    23    23    24   ar
    24    24    25   ar
    25    25    26   ar
    26    26    27   ar
    27    27    29    1
    28    29    30   ar
    29    30    31   ar
    30    31    32   ar
    31    32    33   ar
    32    27    28   ar
    33    16     9   ar
    34    21    17   ar
    35     8     3    1
    36    28    23   ar
    37    33    29   ar
@<TRIPOS>MOLECULE
*****
 33 37 0 0 0
SMALL
GASTEIGER

@<TRIPOS>ATOM
      1 O          63.1118   89.5942   10.9080 O.2     1  UNL1       -0.2698
      2 C          62.7713   88.1460   11.0998 C.2     1  UNL1        0.2507
      3 N          63.1985   87.4342   12.3491 N.am    1  UNL1       -0.2723
      4 C          62.8580   85.9860   12.5409 C.3     1  UNL1        0.1257
      5 C          63.2853   85.2742   13.7903 C.3     1  UNL1        0.1637
      6 O          64.0530   86.0106   14.8478 O.3     1  UNL1       -0.3502
      7 C          64.3935   87.4588   14.6559 C.3     1  UNL1        0.1622
      8 C          63.9663   88.1706   13.4066 C.3     1  UNL1        0.1096
      9 C          62.0035   87.4096   10.0422 C.ar    1  UNL1        0.0753
     10 C          62.6973   86.3973    9.1797 C.ar    1  UNL1        0.0381
     11 C          61.9296   85.6609    8.1222 C.ar    1  UNL1        0.1676
     12 F          62.6233   84.6486    7.2597 F       1  UNL1       -0.2018
     13 C          60.4682   85.9368    7.9272 C.ar    1  UNL1        0.1689
     14 F          59.7004   85.2004    6.8697 F       1  UNL1       -0.2017
     15 C          59.7744   86.9491    8.7898 C.ar    1  UNL1        0.0530
     16 C          60.5421   87.6855    9.8473 C.ar    1  UNL1        0.1096
     17 N          59.8484   88.6978   10.7098 N.ar    1  UNL1       -0.1476
     18 N          59.7044   90.1606   10.4106 N.ar    1  UNL1       -0.1447
     19 C          58.9439   90.7919   11.5389 C.ar    1  UNL1        0.1446
     20 C          58.6177   89.7193   12.5354 C.ar    1  UNL1        0.1446
     21 N          59.1767   88.4251   12.0230 N.ar    1  UNL1       -0.1447
     22 C          64.3068   89.6188   13.2148 C.3     1  UNL1        0.0488
     23 C          64.5765   90.4900   14.4057 C.ar    1  UNL1       -0.0189
     24 C          63.5243   90.6657   15.4601 C.ar    1  UNL1       -0.0041
     25 C          63.7940   91.5369   16.6511 C.ar    1  UNL1        0.0013
     26 C          65.1160   92.2323   16.7875 C.ar    1  UNL1        0.0209
     27 C          66.1683   92.0566   15.7331 C.ar    1  UNL1        0.1026
     28 C          65.8986   91.1854   14.5422 C.ar    1  UNL1        0.0167
     29 N          67.4903   92.7520   15.8695 N.ar    1  UNL1       -0.1478
     30 N          67.7363   94.2210   15.6920 N.ar    1  UNL1       -0.1447
     31 C          69.1965   94.4774   15.9203 C.ar    1  UNL1        0.1446
     32 C          69.8530   93.1669   16.2389 C.ar    1  UNL1        0.1446
     33 N          68.7986   92.1005   16.2075 N.ar    1  UNL1       -0.1447
@<TRIPOS>BOND
     1     1     2    2
     2     2     9    1
     3     9    10   ar
     4    10    11   ar
     5    11    12    1
     6    11    13   ar
     7    13    14    1
     8    13    15   ar
     9    15    16   ar
    10    16    17    1
    11    17    18   ar
    12    18    19   ar
    13    19    20   ar
    14    20    21   ar
    15     2     3   am
    16     3     4    1
    17     4     5    1
    18     5     6    1
    19     6     7    1
    20     7     8    1
    21     8    22    1
    22    22    23    1
    23    23    24   ar
    24    24    25   ar
    25    25    26   ar
    26    26    27   ar
    27    27    29    1
    28    29    30   ar
    29    30    31   ar
    30    31    32   ar
    31    32    33   ar
    32    27    28   ar
    33    16     9   ar
    34    21    17   ar
    35     8     3    1
    36    28    23   ar
    37    33    29   ar
@<TRIPOS>MOLECULE
*****
 33 37 0 0 0
SMALL
GASTEIGER

@<TRIPOS>ATOM
      1 O          61.7072   85.9982   12.9541 O.2     1  UNL1       -0.2698
      2 C          62.3038   84.9327   12.0831 C.2     1  UNL1        0.2507
      3 N          62.5278   85.1955   10.6234 N.am    1  UNL1       -0.2723
      4 C          63.1244   84.1300    9.7524 C.3     1  UNL1        0.1257
      5 C          63.3485   84.3928    8.2927 C.3     1  UNL1        0.1637
      6 O          62.9759   85.7212    7.7040 O.3     1  UNL1       -0.3502
      7 C          62.3793   86.7868    8.5750 C.3     1  UNL1        0.1622
      8 C          62.1553   86.5239   10.0347 C.3     1  UNL1        0.1096
      9 C          62.6764   83.6042   12.6718 C.ar    1  UNL1        0.0753
     10 C          62.4686   82.3478   11.8792 C.ar    1  UNL1        0.0381
     11 C          62.8411   81.0195   12.4678 C.ar    1  UNL1        0.1676
     12 F          62.6334   79.7631   11.6752 F       1  UNL1       -0.2018
     13 C          63.4214   80.9475   13.8491 C.ar    1  UNL1        0.1689
     14 F          63.7940   79.6190   14.4379 F       1  UNL1       -0.2017
     15 C          63.6292   82.2039   14.6418 C.ar    1  UNL1        0.0530
     16 C          63.2566   83.5323   14.0531 C.ar    1  UNL1        0.1096
     17 N          63.4644   84.7887   14.8458 N.ar    1  UNL1       -0.1476
     18 N          62.7018   85.1936   16.0723 N.ar    1  UNL1       -0.1447
     19 C          63.2373   86.5159   16.5357 C.ar    1  UNL1        0.1446
     20 C          64.3309   86.9283   15.5954 C.ar    1  UNL1        0.1446
     21 N          64.4712   85.8608   14.5510 N.ar    1  UNL1       -0.1447
     22 C          61.5587   87.5895   10.9057 C.3     1  UNL1        0.0488
     23 C          62.2517   88.9113   11.0549 C.ar    1  UNL1       -0.0189
     24 C          62.4208   89.8081    9.8645 C.ar    1  UNL1       -0.0041
     25 C          63.1139   91.1300   10.0137 C.ar    1  UNL1        0.0013
     26 C          63.6379   91.5551   11.3534 C.ar    1  UNL1        0.0209
     27 C          63.4688   90.6582   12.5439 C.ar    1  UNL1        0.1026
     28 C          62.7757   89.3364   12.3946 C.ar    1  UNL1        0.0167
     29 N          63.9928   91.0833   13.8836 N.ar    1  UNL1       -0.1478
     30 N          65.2492   91.8644   14.1315 N.ar    1  UNL1       -0.1447
     31 C          65.3853   92.0658   15.6117 C.ar    1  UNL1        0.1446
     32 C          64.2131   91.4091   16.2786 C.ar    1  UNL1        0.1446
     33 N          63.3524   90.8019   15.2106 N.ar    1  UNL1       -0.1447
@<TRIPOS>BOND
     1     1     2    2
     2     2     9    1
     3     9    10   ar
     4    10    11   ar
     5    11    12    1
     6    11    13   ar
     7    13    14    1
     8    13    15   ar
     9    15    16   ar
    10    16    17    1
    11    17    18   ar
    12    18    19   ar
    13    19    20   ar
    14    20    21   ar
    15     2     3   am
    16     3     4    1
    17     4     5    1
    18     5     6    1
    19     6     7    1
    20     7     8    1
    21     8    22    1
    22    22    23    1
    23    23    24   ar
    24    24    25   ar
    25    25    26   ar
    26    26    27   ar
    27    27    29    1
    28    29    30   ar
    29    30    31   ar
    30    31    32   ar
    31    32    33   ar
    32    27    28   ar
    33    16     9   ar
    34    21    17   ar
    35     8     3    1
    36    28    23   ar
    37    33    29   ar
@<TRIPOS>MOLECULE
*****
 33 37 0 0 0
SMALL
GASTEIGER

@<TRIPOS>ATOM
      1 O          62.9431   87.8231   12.6569 O.2     1  UNL1       -0.2698
      2 C          62.7906   89.0266   11.7746 C.2     1  UNL1        0.2507
      3 N          61.7763   89.0228   10.6696 N.am    1  UNL1       -0.2723
      4 C          61.6238   90.2262    9.7873 C.3     1  UNL1        0.1257
      5 C          60.6094   90.2224    8.6822 C.3     1  UNL1        0.1637
      6 O          59.7475   89.0151    8.4596 O.3     1  UNL1       -0.3502
      7 C          59.8999   87.8117    9.3419 C.3     1  UNL1        0.1622
      8 C          60.9143   87.8155   10.4469 C.3     1  UNL1        0.1096
      9 C          63.6526   90.2339   11.9973 C.ar    1  UNL1        0.0753
     10 C          64.0064   91.1258   10.8443 C.ar    1  UNL1        0.0381
     11 C          64.8683   92.3330   11.0670 C.ar    1  UNL1        0.1676
     12 F          65.2222   93.2249    9.9141 F       1  UNL1       -0.2018
     13 C          65.3765   92.6483   12.4426 C.ar    1  UNL1        0.1689
     14 F          66.2384   93.8556   12.6653 F       1  UNL1       -0.2017
     15 C          65.0226   91.7564   13.5956 C.ar    1  UNL1        0.0530
     16 C          64.1607   90.5492   13.3729 C.ar    1  UNL1        0.1096
     17 N          63.8069   89.6572   14.5258 N.ar    1  UNL1       -0.1476
     18 N          64.4426   88.3371   14.8467 N.ar    1  UNL1       -0.1447
     19 C          63.7839   87.7928   16.0796 C.ar    1  UNL1        0.1446
     20 C          62.7410   88.7766   16.5206 C.ar    1  UNL1        0.1446
     21 N          62.7552   89.9289   15.5604 N.ar    1  UNL1       -0.1447
     22 C          61.0667   86.6120   11.3292 C.3     1  UNL1        0.0488
     23 C          61.9565   85.4806   10.9073 C.ar    1  UNL1       -0.0189
     24 C          62.6609   85.5337    9.5840 C.ar    1  UNL1       -0.0041
     25 C          63.5507   84.4023    9.1620 C.ar    1  UNL1        0.0013
     26 C          63.7362   83.2177   10.0634 C.ar    1  UNL1        0.0209
     27 C          63.0318   83.1646   11.3867 C.ar    1  UNL1        0.1026
     28 C          62.1420   84.2960   11.8086 C.ar    1  UNL1        0.0167
     29 N          63.2173   81.9800   12.2880 N.ar    1  UNL1       -0.1478
     30 N          62.4091   80.7167   12.2613 N.ar    1  UNL1       -0.1447
     31 C          62.9358   79.8067   13.3311 C.ar    1  UNL1        0.1446
     32 C          64.0696   80.5076   14.0190 C.ar    1  UNL1        0.1446
     33 N          64.2436   81.8509   13.3744 N.ar    1  UNL1       -0.1447
@<TRIPOS>BOND
     1     1     2    2
     2     2     9    1
     3     9    10   ar
     4    10    11   ar
     5    11    12    1
     6    11    13   ar
     7    13    14    1
     8    13    15   ar
     9    15    16   ar
    10    16    17    1
    11    17    18   ar
    12    18    19   ar
    13    19    20   ar
    14    20    21   ar
    15     2     3   am
    16     3     4    1
    17     4     5    1
    18     5     6    1
    19     6     7    1
    20     7     8    1
    21     8    22    1
    22    22    23    1
    23    23    24   ar
    24    24    25   ar
    25    25    26   ar
    26    26    27   ar
    27    27    29    1
    28    29    30   ar
    29    30    31   ar
    30    31    32   ar
    31    32    33   ar
    32    27    28   ar
    33    16     9   ar
    34    21    17   ar
    35     8     3    1
    36    28    23   ar
    37    33    29   ar
@<TRIPOS>MOLECULE
*****
 33 37 0 0 0
SMALL
GASTEIGER

@<TRIPOS>ATOM
      1 O          63.4130   88.1534   11.7861 O.2     1  UNL1       -0.2698
      2 C          63.3980   87.4984   13.1355 C.2     1  UNL1        0.2507
      3 N          63.3418   88.3389   14.3766 N.am    1  UNL1       -0.2723
      4 C          63.3268   87.6839   15.7259 C.3     1  UNL1        0.1257
      5 C          63.2706   88.5245   16.9671 C.3     1  UNL1        0.1637
      6 O          63.2293   90.0200   16.8588 O.3     1  UNL1       -0.3502
      7 C          63.2443   90.6750   15.5094 C.3     1  UNL1        0.1622
      8 C          63.3005   89.8345   14.2683 C.3     1  UNL1        0.1096
      9 C          63.4393   86.0028   13.2437 C.ar    1  UNL1        0.0753
     10 C          64.1690   85.3531   14.3819 C.ar    1  UNL1        0.0381
     11 C          64.2102   83.8576   14.4902 C.ar    1  UNL1        0.1676
     12 F          64.9399   83.2079   15.6284 F       1  UNL1       -0.2018
     13 C          63.5219   83.0119   13.4603 C.ar    1  UNL1        0.1689
     14 F          63.5632   81.5163   13.5685 F       1  UNL1       -0.2017
     15 C          62.7923   83.6616   12.3221 C.ar    1  UNL1        0.0530
     16 C          62.7510   85.1571   12.2138 C.ar    1  UNL1        0.1096
     17 N          62.0213   85.8068   11.0756 N.ar    1  UNL1       -0.1476
     18 N          62.3658   85.6812    9.6211 N.ar    1  UNL1       -0.1447
     19 C          61.3765   86.4929    8.8386 C.ar    1  UNL1        0.1446
     20 C          60.4206   87.1203    9.8095 C.ar    1  UNL1        0.1446
     21 N          60.8191   86.6962   11.1920 N.ar    1  UNL1       -0.1447
     22 C          63.3155   90.4895   12.9190 C.3     1  UNL1        0.0488
     23 C          64.4482   91.3959   12.5378 C.ar    1  UNL1       -0.0189
     24 C          64.5184   91.9666   11.1524 C.ar    1  UNL1       -0.0041
     25 C          65.6512   92.8731   10.7712 C.ar    1  UNL1        0.0013
     26 C          66.7136   93.2089   11.7754 C.ar    1  UNL1        0.0209
     27 C          66.6433   92.6382   13.1609 C.ar    1  UNL1        0.1026
     28 C          65.5106   91.7317   13.5420 C.ar    1  UNL1        0.0167
     29 N          67.7058   92.9739   14.1651 N.ar    1  UNL1       -0.1478
     30 N          69.1191   92.4717   14.1547 N.ar    1  UNL1       -0.1447
     31 C          69.8283   93.0583   15.3392 C.ar    1  UNL1        0.1446
     32 C          68.8531   93.9231   16.0817 C.ar    1  UNL1        0.1446
     33 N          67.5413   93.8710   15.3561 N.ar    1  UNL1       -0.1447
@<TRIPOS>BOND
     1     1     2    2
     2     2     9    1
     3     9    10   ar
     4    10    11   ar
     5    11    12    1
     6    11    13   ar
     7    13    14    1
     8    13    15   ar
     9    15    16   ar
    10    16    17    1
    11    17    18   ar
    12    18    19   ar
    13    19    20   ar
    14    20    21   ar
    15     2     3   am
    16     3     4    1
    17     4     5    1
    18     5     6    1
    19     6     7    1
    20     7     8    1
    21     8    22    1
    22    22    23    1
    23    23    24   ar
    24    24    25   ar
    25    25    26   ar
    26    26    27   ar
    27    27    29    1
    28    29    30   ar
    29    30    31   ar
    30    31    32   ar
    31    32    33   ar
    32    27    28   ar
    33    16     9   ar
    34    21    17   ar
    35     8     3    1
    36    28    23   ar
    37    33    29   ar
@<TRIPOS>MOLECULE
*****
 33 37 0 0 0
SMALL
GASTEIGER

@<TRIPOS>ATOM
      1 O          65.1199   85.6892   13.2982 O.2     1  UNL1       -0.2698
      2 C          64.0378   84.9362   14.0137 C.2     1  UNL1        0.2507
      3 N          63.3565   85.5495   15.2010 N.am    1  UNL1       -0.2723
      4 C          62.2743   84.7966   15.9165 C.3     1  UNL1        0.1257
      5 C          61.5930   85.4100   17.1039 C.3     1  UNL1        0.1637
      6 O          61.9938   86.7762   17.5756 O.3     1  UNL1       -0.3502
      7 C          63.0760   87.5292   16.8600 C.3     1  UNL1        0.1622
      8 C          63.7573   86.9159   15.6728 C.3     1  UNL1        0.1096
      9 C          63.6369   83.5699   13.5420 C.ar    1  UNL1        0.0753
     10 C          64.0281   82.3580   14.3347 C.ar    1  UNL1        0.0381
     11 C          63.6273   80.9918   13.8630 C.ar    1  UNL1        0.1676
     12 F          64.0184   79.7799   14.6557 F       1  UNL1       -0.2018
     13 C          62.8353   80.8373   12.5985 C.ar    1  UNL1        0.1689
     14 F          62.4345   79.4710   12.1267 F       1  UNL1       -0.2017
     15 C          62.4442   82.0492   11.8058 C.ar    1  UNL1        0.0530
     16 C          62.8450   83.4154   12.2775 C.ar    1  UNL1        0.1096
     17 N          62.4538   84.6273   11.4847 N.ar    1  UNL1       -0.1476
     18 N          62.8401   84.9139   10.0640 N.ar    1  UNL1       -0.1447
     19 C          62.2328   86.2290    9.6747 C.ar    1  UNL1        0.1446
     20 C          61.4711   86.7553   10.8549 C.ar    1  UNL1        0.1446
     21 N          61.6077   85.7653   11.9736 N.ar    1  UNL1       -0.1447
     22 C          64.8395   87.6689   14.9573 C.3     1  UNL1        0.0488
     23 C          64.5075   88.9201   14.1996 C.ar    1  UNL1       -0.0189
     24 C          65.2622   90.1866   14.4757 C.ar    1  UNL1       -0.0041
     25 C          64.9302   91.4379   13.7181 C.ar    1  UNL1        0.0013
     26 C          63.8435   91.4227   12.6843 C.ar    1  UNL1        0.0209
     27 C          63.0887   90.1561   12.4081 C.ar    1  UNL1        0.1026
     28 C          63.4207   88.9049   13.1658 C.ar    1  UNL1        0.0167
     29 N          62.0020   90.1409   11.3743 N.ar    1  UNL1       -0.1478
     30 N          62.1989   90.0677    9.8891 N.ar    1  UNL1       -0.1447
     31 C          60.8461   90.0777    9.2411 C.ar    1  UNL1        0.1446
     32 C          59.8131   90.1572   10.3258 C.ar    1  UNL1        0.1446
     33 N          60.5274   90.1962   11.6443 N.ar    1  UNL1       -0.1447
@<TRIPOS>BOND
     1     1     2    2
     2     2     9    1
     3     9    10   ar
     4    10    11   ar
     5    11    12    1
     6    11    13   ar
     7    13    14    1
     8    13    15   ar
     9    15    16   ar
    10    16    17    1
    11    17    18   ar
    12    18    19   ar
    13    19    20   ar
    14    20    21   ar
    15     2     3   am
    16     3     4    1
    17     4     5    1
    18     5     6    1
    19     6     7    1
    20     7     8    1
    21     8    22    1
    22    22    23    1
    23    23    24   ar
    24    24    25   ar
    25    25    26   ar
    26    26    27   ar
    27    27    29    1
    28    29    30   ar
    29    30    31   ar
    30    31    32   ar
    31    32    33   ar
    32    27    28   ar
    33    16     9   ar
    34    21    17   ar
    35     8     3    1
    36    28    23   ar
    37    33    29   ar
