@<TRIPOS>MOLECULE
*****
 38 41 0 0 0
SMALL
GASTEIGER

@<TRIPOS>ATOM
      1 C          62.1316   89.5330   11.1255 C.2     1  UNL1        0.2457
      2 O          61.2266   90.1869   12.1271 O.2     1  UNL1       -0.2702
      3 N          63.2910   90.2937   10.5534 N.am    1  UNL1       -0.3005
      4 H          63.8851   89.8645    9.8960 H       1  UNL1        0.1497
      5 C          63.3172   87.2573   12.6797 C.3     1  UNL1        0.0341
      6 C          62.4701   86.9807   11.4730 C.ar    1  UNL1        0.0141
      7 C          62.2158   85.5661   11.0435 C.ar    1  UNL1        0.1277
      8 N          61.3687   85.2895    9.8369 N.ar    1  UNL1       -0.2310
      9 C          60.7759   86.4274    9.0598 C.ar    1  UNL1        0.0828
     10 C          59.9289   86.1507    7.8532 C.ar    1  UNL1        0.0197
     11 C          59.3361   87.2886    7.0761 C.ar    1  UNL1        0.0082
     12 C          59.5904   88.7031    7.5056 C.ar    1  UNL1        0.0347
     13 BR         58.9976   89.8410    6.7285 Br      1  UNL1       -0.0490
     14 C          60.4375   88.9798    8.7122 C.ar    1  UNL1        0.0083
     15 C          61.0302   87.8419    9.4893 C.ar    1  UNL1        0.0223
     16 C          61.8773   88.1185   10.6960 C.ar    1  UNL1        0.0535
     17 N          62.8086   84.4282   11.8206 N.pl3   1  UNL1       -0.2935
     18 C          63.7741   83.4904   11.1586 C.3     1  UNL1        0.0921
     19 C          64.3668   82.3526   11.9358 C.3     1  UNL1        0.0215
     20 C          63.9941   82.1526   13.3749 C.3     1  UNL1        0.0035
     21 C          63.0286   83.0904   14.0369 C.3     1  UNL1        0.0215
     22 C          62.4358   84.2282   13.2597 C.3     1  UNL1        0.0921
     23 C          63.5453   91.7082   10.9829 C.3     1  UNL1        0.0941
     24 C          64.9435   92.1611   11.2826 C.3     1  UNL1        0.0454
     25 C          65.4314   92.2004   12.7004 C.ar    1  UNL1        0.0194
     26 C          65.1694   91.0416   13.6162 C.ar    1  UNL1        0.1371
     27 F          64.4194   89.8436   13.1141 F       1  UNL1       -0.2045
     28 C          65.6573   91.0810   15.0341 C.ar    1  UNL1        0.0317
     29 C          66.4073   92.2790   15.5362 C.ar    1  UNL1        0.0328
     30 C          66.6694   93.4378   14.6205 C.ar    1  UNL1        0.1504
     31 F          67.4194   94.6359   15.1227 F       1  UNL1       -0.2033
     32 C          66.1815   93.3985   13.2026 C.ar    1  UNL1        0.0833
     33 CL         66.4435   94.5573   12.2869 Cl      1  UNL1       -0.0802
     34 C          65.8538   92.5748   10.1644 C.3     1  UNL1        0.0121
     35 C          67.2757   92.0980   10.1395 C.3     1  UNL1        0.0421
     36 C          68.2821   92.7854    9.2650 C.2     1  UNL1        0.0503
     37 O          68.9128   92.0456    8.1228 O.co2   1  UNL1       -0.5492
     38 O          68.6576   94.2128    9.5328 O.co2   1  UNL1       -0.5492
@<TRIPOS>UNITY_ATOM_ATTR
37 1
charge -1
@<TRIPOS>BOND
     1     5     6    1
     2     6     7   ar
     3     7    17    1
     4    17    18    1
     5    18    19    1
     6    19    20    1
     7    20    21    1
     8    21    22    1
     9     7     8   ar
    10     8     9   ar
    11     9    10   ar
    12    10    11   ar
    13    11    12   ar
    14    12    13    1
    15    12    14   ar
    16    14    15   ar
    17    15    16   ar
    18    16     1    1
    19     1     2    2
    20     1     3   am
    21     3    23    1
    22    23    24    1
    23    24    34    1
    24    34    35    1
    25    35    36    1
    26    36    37   ar
    27    36    38   ar
    28    24    25    1
    29    25    26   ar
    30    26    27    1
    31    26    28   ar
    32    28    29   ar
    33    29    30   ar
    34    30    31    1
    35    30    32   ar
    36    32    33    1
    37    16     6   ar
    38    32    25   ar
    39    22    17    1
    40    15     9   ar
    41     3     4    1
@<TRIPOS>MOLECULE
*****
 38 41 0 0 0
SMALL
GASTEIGER

@<TRIPOS>ATOM
      1 C          62.3480   89.9992   10.8859 C.2     1  UNL1        0.2457
      2 O          61.3987   90.8948   11.6251 O.2     1  UNL1       -0.2702
      3 N          63.6225   90.5570   10.3248 N.am    1  UNL1       -0.3005
      4 H          64.2456   89.9692    9.8396 H       1  UNL1        0.1497
      5 C          63.4948   87.9639   12.7681 C.3     1  UNL1        0.0341
      6 C          62.5964   87.5281   11.6487 C.ar    1  UNL1        0.0141
      7 C          62.2714   86.0746   11.4705 C.ar    1  UNL1        0.1277
      8 N          61.3730   85.6388   10.3512 N.ar    1  UNL1       -0.2310
      9 C          60.7996   86.6564    9.4100 C.ar    1  UNL1        0.0828
     10 C          59.9012   86.2205    8.2907 C.ar    1  UNL1        0.0197
     11 C          59.3279   87.2382    7.3496 C.ar    1  UNL1        0.0082
     12 C          59.6529   88.6916    7.5278 C.ar    1  UNL1        0.0347
     13 BR         59.0795   89.7093    6.5867 Br      1  UNL1       -0.0490
     14 C          60.5513   89.1275    8.6472 C.ar    1  UNL1        0.0083
     15 C          61.1246   88.1099    9.5882 C.ar    1  UNL1        0.0223
     16 C          62.0230   88.5457   10.7077 C.ar    1  UNL1        0.0535
     17 N          62.8447   85.0570   12.4117 N.pl3   1  UNL1       -0.2935
     18 C          62.3959   85.0218   13.8425 C.3     1  UNL1        0.0921
     19 C          62.9693   84.0042   14.7835 C.3     1  UNL1        0.0215
     20 C          63.9915   83.0218   14.2938 C.3     1  UNL1        0.0035
     21 C          64.4404   83.0570   12.8630 C.3     1  UNL1        0.0215
     22 C          63.8670   84.0746   11.9219 C.3     1  UNL1        0.0921
     23 C          63.9475   92.0105   10.5031 C.3     1  UNL1        0.0941
     24 C          65.2272   92.4163   11.1720 C.3     1  UNL1        0.0454
     25 C          66.2877   93.1332   10.3900 C.ar    1  UNL1        0.0194
     26 C          67.4452   92.3682    9.8198 C.ar    1  UNL1        0.1371
     27 F          67.5423   90.8865   10.0317 F       1  UNL1       -0.2045
     28 C          68.5057   93.0852    9.0378 C.ar    1  UNL1        0.0317
     29 C          68.4086   94.5669    8.8260 C.ar    1  UNL1        0.0328
     30 C          67.2511   95.3318    9.3961 C.ar    1  UNL1        0.1504
     31 F          67.1540   96.8137    9.1843 F       1  UNL1       -0.2033
     32 C          66.1906   94.6150   10.1781 C.ar    1  UNL1        0.0833
     33 CL         65.0331   95.3799   10.7483 Cl      1  UNL1       -0.0802
     34 C          65.4465   92.1053   12.6229 C.3     1  UNL1        0.0121
     35 C          66.5214   92.8182   13.3886 C.3     1  UNL1        0.0421
     36 C          67.7343   92.0681   13.8536 C.2     1  UNL1        0.0503
     37 O          67.8606   91.6644   15.2927 O.co2   1  UNL1       -0.5492
     38 O          68.8211   91.7217   12.8793 O.co2   1  UNL1       -0.5492
@<TRIPOS>UNITY_ATOM_ATTR
37 1
charge -1
@<TRIPOS>BOND
     1     5     6    1
     2     6     7   ar
     3     7    17    1
     4    17    18    1
     5    18    19    1
     6    19    20    1
     7    20    21    1
     8    21    22    1
     9     7     8   ar
    10     8     9   ar
    11     9    10   ar
    12    10    11   ar
    13    11    12   ar
    14    12    13    1
    15    12    14   ar
    16    14    15   ar
    17    15    16   ar
    18    16     1    1
    19     1     2    2
    20     1     3   am
    21     3    23    1
    22    23    24    1
    23    24    34    1
    24    34    35    1
    25    35    36    1
    26    36    37   ar
    27    36    38   ar
    28    24    25    1
    29    25    26   ar
    30    26    27    1
    31    26    28   ar
    32    28    29   ar
    33    29    30   ar
    34    30    31    1
    35    30    32   ar
    36    32    33    1
    37    16     6   ar
    38    32    25   ar
    39    22    17    1
    40    15     9   ar
    41     3     4    1
@<TRIPOS>MOLECULE
*****
 38 41 0 0 0
SMALL
GASTEIGER

@<TRIPOS>ATOM
      1 C          62.2748   89.9742   10.8981 C.2     1  UNL1        0.2457
      2 O          61.2703   90.8575   11.5768 O.2     1  UNL1       -0.2702
      3 N          63.5765   90.5473   10.4212 N.am    1  UNL1       -0.3005
      4 H          64.2358   89.9676    9.9757 H       1  UNL1        0.1497
      5 C          63.4519   87.9321   12.7540 C.3     1  UNL1        0.0341
      6 C          62.5663   87.4968   11.6242 C.ar    1  UNL1        0.0141
      7 C          62.2692   86.0404   11.4224 C.ar    1  UNL1        0.1277
      8 N          61.3837   85.6051   10.2927 N.ar    1  UNL1       -0.2310
      9 C          60.7952   86.6262    9.3647 C.ar    1  UNL1        0.0828
     10 C          59.9096   86.1909    8.2350 C.ar    1  UNL1        0.0197
     11 C          59.3211   87.2119    7.3071 C.ar    1  UNL1        0.0082
     12 C          59.6182   88.6683    7.5089 C.ar    1  UNL1        0.0347
     13 BR         59.0296   89.6894    6.5809 Br      1  UNL1       -0.0490
     14 C          60.5037   89.1036    8.6386 C.ar    1  UNL1        0.0083
     15 C          61.0922   88.0826    9.5665 C.ar    1  UNL1        0.0223
     16 C          61.9778   88.5179   10.6963 C.ar    1  UNL1        0.0535
     17 N          62.8578   85.0193   12.3504 N.pl3   1  UNL1       -0.2935
     18 C          63.8732   84.0398   11.8410 C.3     1  UNL1        0.0921
     19 C          64.4617   83.0188   12.7689 C.3     1  UNL1        0.0215
     20 C          64.0348   82.9773   14.2063 C.3     1  UNL1        0.0035
     21 C          63.0194   83.9568   14.7157 C.3     1  UNL1        0.0215
     22 C          62.4309   84.9778   13.7878 C.3     1  UNL1        0.0921
     23 C          63.8735   92.0037   10.6230 C.3     1  UNL1        0.0941
     24 C          65.1605   92.4242   11.2685 C.3     1  UNL1        0.0454
     25 C          66.1970   93.1557   10.4681 C.ar    1  UNL1        0.0194
     26 C          65.9694   94.5850   10.0741 C.ar    1  UNL1        0.1371
     27 F          64.7054   95.2829   10.4806 F       1  UNL1       -0.2045
     28 C          67.0060   95.3165    9.2737 C.ar    1  UNL1        0.0317
     29 C          68.2699   94.6186    8.8672 C.ar    1  UNL1        0.0328
     30 C          68.4975   93.1893    9.2612 C.ar    1  UNL1        0.1504
     31 F          69.7616   92.4914    8.8547 F       1  UNL1       -0.2033
     32 C          67.4610   92.4578   10.0616 C.ar    1  UNL1        0.0833
     33 CL         67.6886   91.0285   10.4555 Cl      1  UNL1       -0.0802
     34 C          65.4111   92.1133   12.7143 C.3     1  UNL1        0.0121
     35 C          66.2406   93.0437   13.5487 C.3     1  UNL1        0.0421
     36 C          67.4479   92.5265   14.2733 C.2     1  UNL1        0.0503
     37 O          67.4105   92.3503   15.7624 O.co2   1  UNL1       -0.5492
     38 O          68.6927   92.1857   13.5087 O.co2   1  UNL1       -0.5492
@<TRIPOS>UNITY_ATOM_ATTR
37 1
charge -1
@<TRIPOS>BOND
     1     5     6    1
     2     6     7   ar
     3     7    17    1
     4    17    18    1
     5    18    19    1
     6    19    20    1
     7    20    21    1
     8    21    22    1
     9     7     8   ar
    10     8     9   ar
    11     9    10   ar
    12    10    11   ar
    13    11    12   ar
    14    12    13    1
    15    12    14   ar
    16    14    15   ar
    17    15    16   ar
    18    16     1    1
    19     1     2    2
    20     1     3   am
    21     3    23    1
    22    23    24    1
    23    24    34    1
    24    34    35    1
    25    35    36    1
    26    36    37   ar
    27    36    38   ar
    28    24    25    1
    29    25    26   ar
    30    26    27    1
    31    26    28   ar
    32    28    29   ar
    33    29    30   ar
    34    30    31    1
    35    30    32   ar
    36    32    33    1
    37    16     6   ar
    38    32    25   ar
    39    22    17    1
    40    15     9   ar
    41     3     4    1
@<TRIPOS>MOLECULE
*****
 38 41 0 0 0
SMALL
GASTEIGER

@<TRIPOS>ATOM
      1 C          62.5413   89.7086   11.6973 C.2     1  UNL1        0.2457
      2 O          61.2127   90.1790   11.1843 O.2     1  UNL1       -0.2702
      3 N          62.8627   88.2435   11.7145 N.am    1  UNL1       -0.3005
      4 H          63.7348   87.9347   12.0513 H       1  UNL1        0.1497
      5 C          63.9153   91.5439    9.7624 C.3     1  UNL1        0.0341
      6 C          64.2357   91.6208   11.2258 C.ar    1  UNL1        0.0141
      7 C          65.2431   92.6155   11.7217 C.ar    1  UNL1        0.1277
      8 N          65.5635   92.6925   13.1850 N.ar    1  UNL1       -0.2310
      9 C          64.8765   91.7748   14.1526 C.ar    1  UNL1        0.0828
     10 C          65.1968   91.8518   15.6159 C.ar    1  UNL1        0.0197
     11 C          64.5098   90.9342   16.5833 C.ar    1  UNL1        0.0082
     12 C          63.5025   89.9396   16.0874 C.ar    1  UNL1        0.0347
     13 BR         62.8155   89.0219   17.0549 Br      1  UNL1       -0.0490
     14 C          63.1821   89.8626   14.6241 C.ar    1  UNL1        0.0083
     15 C          63.8691   90.7802   13.6566 C.ar    1  UNL1        0.0223
     16 C          63.5487   90.7032   12.1932 C.ar    1  UNL1        0.0535
     17 N          65.9301   93.5331   10.7542 N.pl3   1  UNL1       -0.2935
     18 C          65.4513   94.9452   10.5907 C.3     1  UNL1        0.0921
     19 C          66.1383   95.8627    9.6232 C.3     1  UNL1        0.0215
     20 C          67.3041   95.3682    8.8193 C.3     1  UNL1        0.0035
     21 C          67.7829   93.9562    8.9828 C.3     1  UNL1        0.0215
     22 C          67.0959   93.0386    9.9503 C.3     1  UNL1        0.0921
     23 C          61.8553   87.2488   11.2186 C.3     1  UNL1        0.0941
     24 C          62.2590   86.2087   10.2161 C.3     1  UNL1        0.0454
     25 C          62.8895   84.9280   10.6767 C.ar    1  UNL1        0.0194
     26 C          63.5336   84.0087    9.6816 C.ar    1  UNL1        0.1371
     27 F          63.5471   84.3702    8.2259 F       1  UNL1       -0.2045
     28 C          64.1641   82.7280   10.1423 C.ar    1  UNL1        0.0317
     29 C          64.1505   82.3665   11.5980 C.ar    1  UNL1        0.0328
     30 C          63.5065   83.2857   12.5930 C.ar    1  UNL1        0.1504
     31 F          63.4930   82.9242   14.0488 F       1  UNL1       -0.2033
     32 C          62.8760   84.5664   12.1325 C.ar    1  UNL1        0.0833
     33 CL         62.2320   85.4857   13.1275 Cl      1  UNL1       -0.0802
     34 C          62.0323   86.4493    8.7530 C.3     1  UNL1        0.0121
     35 C          60.6945   86.1531    8.1427 C.3     1  UNL1        0.0421
     36 C          59.6194   87.1991    8.1483 C.2     1  UNL1        0.0503
     37 O          59.9673   88.6307    8.4301 O.co2   1  UNL1       -0.5492
     38 O          58.1963   86.8134    7.8720 O.co2   1  UNL1       -0.5492
@<TRIPOS>UNITY_ATOM_ATTR
37 1
charge -1
@<TRIPOS>BOND
     1     5     6    1
     2     6     7   ar
     3     7    17    1
     4    17    18    1
     5    18    19    1
     6    19    20    1
     7    20    21    1
     8    21    22    1
     9     7     8   ar
    10     8     9   ar
    11     9    10   ar
    12    10    11   ar
    13    11    12   ar
    14    12    13    1
    15    12    14   ar
    16    14    15   ar
    17    15    16   ar
    18    16     1    1
    19     1     2    2
    20     1     3   am
    21     3    23    1
    22    23    24    1
    23    24    34    1
    24    34    35    1
    25    35    36    1
    26    36    37   ar
    27    36    38   ar
    28    24    25    1
    29    25    26   ar
    30    26    27    1
    31    26    28   ar
    32    28    29   ar
    33    29    30   ar
    34    30    31    1
    35    30    32   ar
    36    32    33    1
    37    16     6   ar
    38    32    25   ar
    39    22    17    1
    40    15     9   ar
    41     3     4    1
@<TRIPOS>MOLECULE
*****
 38 41 0 0 0
SMALL
GASTEIGER

@<TRIPOS>ATOM
      1 C          62.6203   89.8428   11.7642 C.2     1  UNL1        0.2457
      2 O          61.3671   90.3160   11.0893 O.2     1  UNL1       -0.2702
      3 N          62.8552   88.3750   11.9657 N.am    1  UNL1       -0.3005
      4 H          63.6777   88.0644   12.4087 H       1  UNL1        0.1497
      5 C          63.9972   91.6347    9.7910 C.3     1  UNL1        0.0341
      6 C          64.3271   91.7331   11.2510 C.ar    1  UNL1        0.0141
      7 C          65.3454   92.7276   11.7244 C.ar    1  UNL1        0.1277
      8 N          65.6753   92.8261   13.1843 N.ar    1  UNL1       -0.2310
      9 C          64.9868   91.9301   14.1709 C.ar    1  UNL1        0.0828
     10 C          65.3167   92.0286   15.6309 C.ar    1  UNL1        0.0197
     11 C          64.6283   91.1327   16.6174 C.ar    1  UNL1        0.0082
     12 C          63.6099   90.1383   16.1440 C.ar    1  UNL1        0.0347
     13 BR         62.9215   89.2423   17.1307 Br      1  UNL1       -0.0490
     14 C          63.2801   90.0398   14.6841 C.ar    1  UNL1        0.0083
     15 C          63.9685   90.9357   13.6976 C.ar    1  UNL1        0.0223
     16 C          63.6386   90.8372   12.2375 C.ar    1  UNL1        0.0535
     17 N          66.0339   93.6235   10.7377 N.pl3   1  UNL1       -0.2935
     18 C          65.5564   95.0321   10.5435 C.3     1  UNL1        0.0921
     19 C          66.2449   95.9280    9.5569 C.3     1  UNL1        0.0215
     20 C          67.4108   95.4152    8.7646 C.3     1  UNL1        0.0035
     21 C          67.8882   94.0066    8.9588 C.3     1  UNL1        0.0215
     22 C          67.1997   93.1108    9.9454 C.3     1  UNL1        0.0921
     23 C          61.8368   87.3806   11.4924 C.3     1  UNL1        0.0941
     24 C          62.2813   86.0944   10.8614 C.3     1  UNL1        0.0454
     25 C          61.9218   85.7946    9.4364 C.ar    1  UNL1        0.0194
     26 C          62.8402   84.9639    8.5900 C.ar    1  UNL1        0.1371
     27 F          64.1183   84.4331    9.1686 F       1  UNL1       -0.2045
     28 C          62.4806   84.6641    7.1648 C.ar    1  UNL1        0.0317
     29 C          61.2026   85.1949    6.5863 C.ar    1  UNL1        0.0328
     30 C          60.2841   86.0256    7.4327 C.ar    1  UNL1        0.1504
     31 F          59.0060   86.5564    6.8540 F       1  UNL1       -0.2033
     32 C          60.6437   86.3254    8.8577 C.ar    1  UNL1        0.0833
     33 CL         59.7252   87.1561    9.7042 Cl      1  UNL1       -0.0802
     34 C          63.0854   85.1081   11.6555 C.3     1  UNL1        0.0121
     35 C          62.7446   84.8466   13.0927 C.3     1  UNL1        0.0421
     36 C          63.7093   85.2327   14.1745 C.2     1  UNL1        0.0503
     37 O          64.3671   84.1719   15.0063 O.co2   1  UNL1       -0.5492
     38 O          64.0162   86.6796   14.4244 O.co2   1  UNL1       -0.5492
@<TRIPOS>UNITY_ATOM_ATTR
37 1
charge -1
@<TRIPOS>BOND
     1     5     6    1
     2     6     7   ar
     3     7    17    1
     4    17    18    1
     5    18    19    1
     6    19    20    1
     7    20    21    1
     8    21    22    1
     9     7     8   ar
    10     8     9   ar
    11     9    10   ar
    12    10    11   ar
    13    11    12   ar
    14    12    13    1
    15    12    14   ar
    16    14    15   ar
    17    15    16   ar
    18    16     1    1
    19     1     2    2
    20     1     3   am
    21     3    23    1
    22    23    24    1
    23    24    34    1
    24    34    35    1
    25    35    36    1
    26    36    37   ar
    27    36    38   ar
    28    24    25    1
    29    25    26   ar
    30    26    27    1
    31    26    28   ar
    32    28    29   ar
    33    29    30   ar
    34    30    31    1
    35    30    32   ar
    36    32    33    1
    37    16     6   ar
    38    32    25   ar
    39    22    17    1
    40    15     9   ar
    41     3     4    1
@<TRIPOS>MOLECULE
*****
 38 41 0 0 0
SMALL
GASTEIGER

@<TRIPOS>ATOM
      1 C          62.5109   89.9193   11.7216 C.2     1  UNL1        0.2457
      2 O          61.2500   90.4522   11.1083 O.2     1  UNL1       -0.2702
      3 N          62.7064   88.4393   11.8678 N.am    1  UNL1       -0.3005
      4 H          63.5340   88.0895   12.2703 H       1  UNL1        0.1497
      5 C          63.9157   91.6882    9.7474 C.3     1  UNL1        0.0341
      6 C          64.2787   91.7508   11.2015 C.ar    1  UNL1        0.0141
      7 C          65.3441   92.6978   11.6685 C.ar    1  UNL1        0.1277
      8 N          65.7070   92.7604   13.1226 N.ar    1  UNL1       -0.2310
      9 C          65.0046   91.8759   14.1097 C.ar    1  UNL1        0.0828
     10 C          65.3675   91.9385   15.5637 C.ar    1  UNL1        0.0197
     11 C          64.6651   91.0541   16.5508 C.ar    1  UNL1        0.0082
     12 C          63.5997   90.1070   16.0838 C.ar    1  UNL1        0.0347
     13 BR         62.8973   89.2225   17.0709 Br      1  UNL1       -0.0490
     14 C          63.2368   90.0444   14.6297 C.ar    1  UNL1        0.0083
     15 C          63.9392   90.9289   13.6427 C.ar    1  UNL1        0.0223
     16 C          63.5763   90.8663   12.1886 C.ar    1  UNL1        0.0535
     17 N          66.0465   93.5823   10.6814 N.pl3   1  UNL1       -0.2935
     18 C          67.2128   93.0551    9.8992 C.3     1  UNL1        0.0921
     19 C          67.9151   93.9396    8.9121 C.3     1  UNL1        0.0215
     20 C          67.4512   95.3512    8.7072 C.3     1  UNL1        0.0035
     21 C          66.2850   95.8784    9.4894 C.3     1  UNL1        0.0215
     22 C          65.5826   94.9940   10.4765 C.3     1  UNL1        0.0921
     23 C          61.6411   87.4922   11.4008 C.3     1  UNL1        0.0941
     24 C          62.0213   86.2249   10.6943 C.3     1  UNL1        0.0454
     25 C          61.5470   85.9760    9.2932 C.ar    1  UNL1        0.0194
     26 C          60.2141   86.5009    8.8483 C.ar    1  UNL1        0.1371
     27 F          59.3557   87.2747    9.8044 F       1  UNL1       -0.2045
     28 C          59.7398   86.2520    7.4471 C.ar    1  UNL1        0.0317
     29 C          60.5983   85.4782    6.4910 C.ar    1  UNL1        0.0328
     30 C          61.9311   84.9533    6.9360 C.ar    1  UNL1        0.1504
     31 F          62.7897   84.1795    5.9798 F       1  UNL1       -0.2033
     32 C          62.4055   85.2022    8.3370 C.ar    1  UNL1        0.0833
     33 CL         63.7383   84.6773    8.7820 Cl      1  UNL1       -0.0802
     34 C          62.8760   85.2065   11.3888 C.3     1  UNL1        0.0121
     35 C          62.7004   84.9559   12.8572 C.3     1  UNL1        0.0421
     36 C          63.7893   85.3321   13.8178 C.2     1  UNL1        0.0503
     37 O          63.9914   86.7692   14.1971 O.co2   1  UNL1       -0.5492
     38 O          64.6763   84.2711   14.3991 O.co2   1  UNL1       -0.5492
@<TRIPOS>UNITY_ATOM_ATTR
37 1
charge -1
@<TRIPOS>BOND
     1     5     6    1
     2     6     7   ar
     3     7    17    1
     4    17    18    1
     5    18    19    1
     6    19    20    1
     7    20    21    1
     8    21    22    1
     9     7     8   ar
    10     8     9   ar
    11     9    10   ar
    12    10    11   ar
    13    11    12   ar
    14    12    13    1
    15    12    14   ar
    16    14    15   ar
    17    15    16   ar
    18    16     1    1
    19     1     2    2
    20     1     3   am
    21     3    23    1
    22    23    24    1
    23    24    34    1
    24    34    35    1
    25    35    36    1
    26    36    37   ar
    27    36    38   ar
    28    24    25    1
    29    25    26   ar
    30    26    27    1
    31    26    28   ar
    32    28    29   ar
    33    29    30   ar
    34    30    31    1
    35    30    32   ar
    36    32    33    1
    37    16     6   ar
    38    32    25   ar
    39    22    17    1
    40    15     9   ar
    41     3     4    1
@<TRIPOS>MOLECULE
*****
 38 41 0 0 0
SMALL
GASTEIGER

@<TRIPOS>ATOM
      1 C          62.2960   89.8495   11.7107 C.2     1  UNL1        0.2457
      2 O          61.0091   90.4381   11.2133 O.2     1  UNL1       -0.2702
      3 N          62.4738   88.3605   11.7505 N.am    1  UNL1       -0.3005
      4 H          63.3185   87.9742   12.0769 H       1  UNL1        0.1497
      5 C          63.7213   91.5981    9.7331 C.3     1  UNL1        0.0341
      6 C          64.1177   91.6240   11.1796 C.ar    1  UNL1        0.0141
      7 C          65.2268   92.5243   11.6372 C.ar    1  UNL1        0.1277
      8 N          65.6232   92.5503   13.0837 N.ar    1  UNL1       -0.2310
      9 C          64.9105   91.6760   14.0725 C.ar    1  UNL1        0.0828
     10 C          65.3069   91.7020   15.5189 C.ar    1  UNL1        0.0197
     11 C          64.5942   90.8277   16.5077 C.ar    1  UNL1        0.0082
     12 C          63.4852   89.9275   16.0500 C.ar    1  UNL1        0.0347
     13 BR         62.7725   89.0531   17.0389 Br      1  UNL1       -0.0490
     14 C          63.0888   89.9014   14.6036 C.ar    1  UNL1        0.0083
     15 C          63.8014   90.7757   13.6148 C.ar    1  UNL1        0.0223
     16 C          63.4050   90.7498   12.1683 C.ar    1  UNL1        0.0535
     17 N          65.9395   93.3986   10.6484 N.pl3   1  UNL1       -0.2935
     18 C          67.1140   92.8636    9.8842 C.3     1  UNL1        0.0921
     19 C          67.8266   93.7379    8.8954 C.3     1  UNL1        0.0215
     20 C          67.3647   95.1472    8.6708 C.3     1  UNL1        0.0035
     21 C          66.1901   95.6823    9.4351 C.3     1  UNL1        0.0215
     22 C          65.4775   94.8080   10.4239 C.3     1  UNL1        0.0921
     23 C          61.3648   87.4603   11.2928 C.3     1  UNL1        0.0941
     24 C          61.6618   86.3105   10.3764 C.3     1  UNL1        0.0454
     25 C          62.5043   85.1665   10.8573 C.ar    1  UNL1        0.0194
     26 C          62.5214   84.8079   12.3137 C.ar    1  UNL1        0.1371
     27 F          61.6959   85.5934   13.2892 F       1  UNL1       -0.2045
     28 C          63.3639   83.6638   12.7947 C.ar    1  UNL1        0.0317
     29 C          64.1894   82.8783   11.8192 C.ar    1  UNL1        0.0328
     30 C          64.1723   83.2369   10.3627 C.ar    1  UNL1        0.1504
     31 F          64.9978   82.4514    9.3872 F       1  UNL1       -0.2033
     32 C          63.3298   84.3809    9.8818 C.ar    1  UNL1        0.0833
     33 CL         63.3128   84.7395    8.4254 Cl      1  UNL1       -0.0802
     34 C          61.1164   86.3048    8.9791 C.3     1  UNL1        0.0121
     35 C          60.7516   87.5974    8.3111 C.3     1  UNL1        0.0421
     36 C          59.3854   87.7757    7.7182 C.2     1  UNL1        0.0503
     37 O          59.0692   89.0051    6.9191 O.co2   1  UNL1       -0.5492
     38 O          58.3352   86.7247    7.9245 O.co2   1  UNL1       -0.5492
@<TRIPOS>UNITY_ATOM_ATTR
37 1
charge -1
@<TRIPOS>BOND
     1     5     6    1
     2     6     7   ar
     3     7    17    1
     4    17    18    1
     5    18    19    1
     6    19    20    1
     7    20    21    1
     8    21    22    1
     9     7     8   ar
    10     8     9   ar
    11     9    10   ar
    12    10    11   ar
    13    11    12   ar
    14    12    13    1
    15    12    14   ar
    16    14    15   ar
    17    15    16   ar
    18    16     1    1
    19     1     2    2
    20     1     3   am
    21     3    23    1
    22    23    24    1
    23    24    34    1
    24    34    35    1
    25    35    36    1
    26    36    37   ar
    27    36    38   ar
    28    24    25    1
    29    25    26   ar
    30    26    27    1
    31    26    28   ar
    32    28    29   ar
    33    29    30   ar
    34    30    31    1
    35    30    32   ar
    36    32    33    1
    37    16     6   ar
    38    32    25   ar
    39    22    17    1
    40    15     9   ar
    41     3     4    1
@<TRIPOS>MOLECULE
*****
 38 41 0 0 0
SMALL
GASTEIGER

@<TRIPOS>ATOM
      1 C          62.7698   89.5981   11.7617 C.2     1  UNL1        0.2457
      2 O          61.4943   89.9527   11.0565 O.2     1  UNL1       -0.2702
      3 N          63.1339   88.1586   11.9748 N.am    1  UNL1       -0.3005
      4 H          63.9710   87.9259   12.4376 H       1  UNL1        0.1497
      5 C          64.0729   91.4641    9.8072 C.3     1  UNL1        0.0341
      6 C          64.3328   91.6160   11.2768 C.ar    1  UNL1        0.0141
      7 C          65.2442   92.7009   11.7691 C.ar    1  UNL1        0.1277
      8 N          65.5040   92.8528   13.2385 N.ar    1  UNL1       -0.2310
      9 C          64.8524   91.9198   14.2158 C.ar    1  UNL1        0.0828
     10 C          65.1122   92.0718   15.6853 C.ar    1  UNL1        0.0197
     11 C          64.4606   91.1388   16.6625 C.ar    1  UNL1        0.0082
     12 C          63.5492   90.0539   16.1702 C.ar    1  UNL1        0.0347
     13 BR         62.8976   89.1209   17.1475 Br      1  UNL1       -0.0490
     14 C          63.2894   89.9020   14.7007 C.ar    1  UNL1        0.0083
     15 C          63.9410   90.8349   13.7235 C.ar    1  UNL1        0.0223
     16 C          63.6812   90.6830   12.2540 C.ar    1  UNL1        0.0535
     17 N          65.8958   93.6339   10.7918 N.pl3   1  UNL1       -0.2935
     18 C          67.0550   93.1633    9.9643 C.3     1  UNL1        0.0921
     19 C          67.7065   94.0963    8.9871 C.3     1  UNL1        0.0215
     20 C          67.1988   95.4998    8.8373 C.3     1  UNL1        0.0035
     21 C          66.0396   95.9704    9.6648 C.3     1  UNL1        0.0215
     22 C          65.3881   95.0374   10.6420 C.3     1  UNL1        0.0921
     23 C          62.2225   87.0737   11.4825 C.3     1  UNL1        0.0941
     24 C          62.7289   85.6672   11.3594 C.3     1  UNL1        0.0454
     25 C          63.1087   84.8965   12.5889 C.ar    1  UNL1        0.0194
     26 C          63.7848   85.5937   13.7320 C.ar    1  UNL1        0.1371
     27 F          64.0811   87.0616   13.6456 F       1  UNL1       -0.2045
     28 C          64.1646   84.8230   14.9616 C.ar    1  UNL1        0.0317
     29 C          63.8683   83.3551   15.0480 C.ar    1  UNL1        0.0328
     30 C          63.1922   82.6579   13.9048 C.ar    1  UNL1        0.1504
     31 F          62.8959   81.1899   13.9913 F       1  UNL1       -0.2033
     32 C          62.8124   83.4286   12.6753 C.ar    1  UNL1        0.0833
     33 CL         62.1363   82.7314   11.5322 Cl      1  UNL1       -0.0802
     34 C          62.8555   85.0314   10.0067 C.3     1  UNL1        0.0121
     35 C          62.6626   85.8565    8.7691 C.3     1  UNL1        0.0421
     36 C          61.4272   85.6822    7.9364 C.2     1  UNL1        0.0503
     37 O          60.1129   86.2164    8.4235 O.co2   1  UNL1       -0.5492
     38 O          61.5061   84.9738    6.6165 O.co2   1  UNL1       -0.5492
@<TRIPOS>UNITY_ATOM_ATTR
37 1
charge -1
@<TRIPOS>BOND
     1     5     6    1
     2     6     7   ar
     3     7    17    1
     4    17    18    1
     5    18    19    1
     6    19    20    1
     7    20    21    1
     8    21    22    1
     9     7     8   ar
    10     8     9   ar
    11     9    10   ar
    12    10    11   ar
    13    11    12   ar
    14    12    13    1
    15    12    14   ar
    16    14    15   ar
    17    15    16   ar
    18    16     1    1
    19     1     2    2
    20     1     3   am
    21     3    23    1
    22    23    24    1
    23    24    34    1
    24    34    35    1
    25    35    36    1
    26    36    37   ar
    27    36    38   ar
    28    24    25    1
    29    25    26   ar
    30    26    27    1
    31    26    28   ar
    32    28    29   ar
    33    29    30   ar
    34    30    31    1
    35    30    32   ar
    36    32    33    1
    37    16     6   ar
    38    32    25   ar
    39    22    17    1
    40    15     9   ar
    41     3     4    1
@<TRIPOS>MOLECULE
*****
 38 41 0 0 0
SMALL
GASTEIGER

@<TRIPOS>ATOM
      1 C          61.9537   89.0411   11.6450 C.2     1  UNL1        0.2457
      2 O          60.7712   89.6711   12.3194 O.2     1  UNL1       -0.2702
      3 N          63.2627   89.7715   11.5898 N.am    1  UNL1       -0.3005
      4 H          64.0388   89.3580   11.1472 H       1  UNL1        0.1497
      5 C          63.1813   86.6591   12.9937 C.3     1  UNL1        0.0341
      6 C          62.4410   86.4897   11.7002 C.ar    1  UNL1        0.0141
      7 C          62.3145   85.1294   11.0810 C.ar    1  UNL1        0.1277
      8 N          61.5742   84.9600    9.7875 N.ar    1  UNL1       -0.2310
      9 C          60.9603   86.1510    9.1131 C.ar    1  UNL1        0.0828
     10 C          60.2200   85.9816    7.8196 C.ar    1  UNL1        0.0197
     11 C          59.6062   87.1726    7.1453 C.ar    1  UNL1        0.0082
     12 C          59.7327   88.5330    7.7645 C.ar    1  UNL1        0.0347
     13 BR         59.1188   89.7240    7.0901 Br      1  UNL1       -0.0490
     14 C          60.4730   88.7024    9.0580 C.ar    1  UNL1        0.0083
     15 C          61.0868   87.5114    9.7323 C.ar    1  UNL1        0.0223
     16 C          61.8272   87.6807   11.0258 C.ar    1  UNL1        0.0535
     17 N          62.9283   83.9383   11.7553 N.pl3   1  UNL1       -0.2935
     18 C          62.4146   83.4844   13.0895 C.3     1  UNL1        0.0921
     19 C          63.0285   82.2934   13.7638 C.3     1  UNL1        0.0215
     20 C          64.1561   81.5564   13.1039 C.3     1  UNL1        0.0035
     21 C          64.6698   82.0104   11.7698 C.3     1  UNL1        0.0215
     22 C          64.0559   83.2013   11.0955 C.3     1  UNL1        0.0921
     23 C          63.3892   91.1318   12.2090 C.3     1  UNL1        0.0941
     24 C          64.5788   91.4601   13.0617 C.3     1  UNL1        0.0454
     25 C          65.8951   91.7843   12.4197 C.ar    1  UNL1        0.0194
     26 C          67.1745   91.5176   13.1560 C.ar    1  UNL1        0.1371
     27 F          67.1376   90.9268   14.5342 F       1  UNL1       -0.2045
     28 C          68.4909   91.8419   12.5139 C.ar    1  UNL1        0.0317
     29 C          68.5278   92.4327   11.1357 C.ar    1  UNL1        0.0328
     30 C          67.2484   92.6993   10.3995 C.ar    1  UNL1        0.1504
     31 F          67.2854   93.2902    9.0212 F       1  UNL1       -0.2033
     32 C          65.9321   92.3751   11.0414 C.ar    1  UNL1        0.0833
     33 CL         64.6527   92.6418   10.3052 Cl      1  UNL1       -0.0802
     34 C          64.4521   91.4642   14.5563 C.3     1  UNL1        0.0121
     35 C          63.3887   90.6413   15.2211 C.3     1  UNL1        0.0421
     36 C          63.6592   89.2083   15.5723 C.2     1  UNL1        0.0503
     37 O          64.7510   88.4571   14.8697 O.co2   1  UNL1       -0.5492
     38 O          62.8379   88.5265   16.6263 O.co2   1  UNL1       -0.5492
@<TRIPOS>UNITY_ATOM_ATTR
37 1
charge -1
@<TRIPOS>BOND
     1     5     6    1
     2     6     7   ar
     3     7    17    1
     4    17    18    1
     5    18    19    1
     6    19    20    1
     7    20    21    1
     8    21    22    1
     9     7     8   ar
    10     8     9   ar
    11     9    10   ar
    12    10    11   ar
    13    11    12   ar
    14    12    13    1
    15    12    14   ar
    16    14    15   ar
    17    15    16   ar
    18    16     1    1
    19     1     2    2
    20     1     3   am
    21     3    23    1
    22    23    24    1
    23    24    34    1
    24    34    35    1
    25    35    36    1
    26    36    37   ar
    27    36    38   ar
    28    24    25    1
    29    25    26   ar
    30    26    27    1
    31    26    28   ar
    32    28    29   ar
    33    29    30   ar
    34    30    31    1
    35    30    32   ar
    36    32    33    1
    37    16     6   ar
    38    32    25   ar
    39    22    17    1
    40    15     9   ar
    41     3     4    1
