@<TRIPOS>MOLECULE
*****
 35 40 0 0 0
SMALL
GASTEIGER

@<TRIPOS>ATOM
      1 C          63.5706   96.5959    1.6688 C.3     1  UNL1        0.1661
      2 N          63.0969   95.1927    1.4310 N.3     1  UNL1        0.2624
      3 O          64.4605   94.9158    1.9913 O.co2   1  UNL1       -0.7718
      4 C          63.0968   93.6933    1.3878 C.3     1  UNL1        0.1054
      5 C          61.8976   92.9581    0.8669 C.3     1  UNL1        0.0737
      6 C          60.6985   93.7222    0.3892 C.3     1  UNL1        0.1003
      7 C          60.6985   95.2216    0.4324 C.3     1  UNL1        0.0737
      8 C          61.8978   95.9568    0.9533 C.3     1  UNL1        0.1054
      9 C          60.5536   92.2328    0.2860 C.2     1  UNL1        0.2294
     10 O          61.5826   91.2171    0.6855 O.2     1  UNL1       -0.2745
     11 N          59.1992   91.9374   -0.2870 N.am    1  UNL1       -0.2839
     12 C          58.5070   93.2442   -0.5378 C.ar    1  UNL1        0.0467
     13 C          57.1525   93.5722   -1.0928 C.ar    1  UNL1        0.0144
     14 C          56.7248   95.0034   -1.2298 C.ar    1  UNL1        0.0012
     15 C          57.6513   96.1065   -0.8119 C.ar    1  UNL1       -0.0002
     16 C          59.0058   95.7785   -0.2570 C.ar    1  UNL1       -0.0026
     17 C          59.4336   94.3473   -0.1199 C.ar    1  UNL1       -0.0007
     18 H          58.8295   91.0428   -0.4668 H       1  UNL1        0.1549
     19 C          55.3704   95.3315   -1.7848 C.2     1  UNL1        0.0001
     20 C          55.1891   95.5126   -3.2628 C.2     1  UNL1        0.0027
     21 C          56.4253   95.3439   -4.0955 C.ar    1  UNL1       -0.0004
     22 C          57.6183   95.0197   -3.2460 C.ar    1  UNL1       -0.0002
     23 C          58.9593   94.8108   -3.8848 C.ar    1  UNL1       -0.0000
     24 C          59.1073   94.9263   -5.3730 C.ar    1  UNL1       -0.0002
     25 C          57.9143   95.2505   -6.2225 C.ar    1  UNL1       -0.0007
     26 C          56.5733   95.4593   -5.5837 C.ar    1  UNL1        0.0212
     27 C          55.5217   95.7719   -6.6067 C.3     1  UNL1        0.2320
     28 O          54.0624   96.0463   -6.3942 O.3     1  UNL1       -0.4706
     29 C          53.2943   96.0758   -5.1061 C.ar    1  UNL1        0.1412
     30 C          51.8464   96.3914   -5.3386 C.ar    1  UNL1        0.0665
     31 C          50.8999   96.4694   -4.1775 C.ar    1  UNL1        0.1432
     32 F          49.4520   96.7849   -4.4100 F       1  UNL1       -0.2041
     33 C          51.4013   96.2319   -2.7839 C.ar    1  UNL1        0.0298
     34 C          52.8492   95.9163   -2.5514 C.ar    1  UNL1        0.0053
     35 C          53.7957   95.8383   -3.7124 C.ar    1  UNL1        0.0341
@<TRIPOS>UNITY_ATOM_ATTR
2 1
charge 1
3 1
charge -1
@<TRIPOS>BOND
     1     1     2    1
     2     2     3    1
     3     2     4    1
     4     4     5    1
     5     5     6    1
     6     6     7    1
     7     7     8    1
     8     6     9    1
     9     9    10    2
    10     9    11   am
    11    11    12    1
    12    12    13   ar
    13    13    14   ar
    14    14    19    1
    15    19    20    2
    16    20    21    1
    17    21    22   ar
    18    22    23   ar
    19    23    24   ar
    20    24    25   ar
    21    25    26   ar
    22    26    27    1
    23    27    28    1
    24    28    29    1
    25    29    30   ar
    26    30    31   ar
    27    31    32    1
    28    31    33   ar
    29    33    34   ar
    30    34    35   ar
    31    14    15   ar
    32    15    16   ar
    33    16    17   ar
    34     8     2    1
    35    17    12   ar
    36    17     6    1
    37    35    20    1
    38    26    21   ar
    39    35    29   ar
    40    11    18    1
@<TRIPOS>MOLECULE
*****
 35 40 0 0 0
SMALL
GASTEIGER

@<TRIPOS>ATOM
      1 C          69.8358   93.1151   14.6879 C.3     1  UNL1        0.1661
      2 N          68.6091   92.9642   15.5376 N.3     1  UNL1        0.2624
      3 O          69.5648   93.5129   16.5552 O.co2   1  UNL1       -0.7718
      4 C          67.7141   93.0039   16.7408 C.3     1  UNL1        0.1054
      5 C          66.2895   92.5474   16.6313 C.3     1  UNL1        0.0737
      6 C          65.7598   92.0511   15.3186 C.3     1  UNL1        0.1003
      7 C          66.6546   92.0113   14.1154 C.3     1  UNL1        0.0737
      8 C          68.0793   92.4679   14.2250 C.3     1  UNL1        0.1054
      9 C          64.7518   92.0331   16.4294 C.2     1  UNL1        0.2294
     10 O          64.9916   92.4685   17.8447 O.2     1  UNL1       -0.2745
     11 N          63.4621   91.5032   15.8764 N.am    1  UNL1       -0.2839
     12 C          63.6729   91.1937   14.4239 C.ar    1  UNL1        0.0467
     13 C          62.7552   90.6474   13.3706 C.ar    1  UNL1        0.0144
     14 C          63.2577   90.4396   11.9727 C.ar    1  UNL1        0.0012
     15 C          64.6777   90.7782   11.6279 C.ar    1  UNL1       -0.0002
     16 C          65.5954   91.3245   12.6812 C.ar    1  UNL1       -0.0026
     17 C          65.0930   91.5323   14.0792 C.ar    1  UNL1       -0.0007
     18 H          62.6243   91.3802   16.3786 H       1  UNL1        0.1549
     19 C          62.3401   89.8932   10.9193 C.2     1  UNL1        0.0001
     20 C          62.0689   88.4194   10.8518 C.2     1  UNL1        0.0027
     21 C          62.7649   87.5818   11.8834 C.ar    1  UNL1       -0.0004
     22 C          63.6112   88.4229   12.7923 C.ar    1  UNL1       -0.0002
     23 C          64.3942   87.7783   13.8974 C.ar    1  UNL1       -0.0000
     24 C          64.3308   86.2925   14.0936 C.ar    1  UNL1       -0.0002
     25 C          63.4844   85.4514   13.1847 C.ar    1  UNL1       -0.0007
     26 C          62.7015   86.0961   12.0796 C.ar    1  UNL1        0.0212
     27 C          61.9264   85.0810   11.2927 C.3     1  UNL1        0.2320
     28 O          61.0234   85.3010   10.1154 O.3     1  UNL1       -0.4706
     29 C          60.6724   86.5904    9.4341 C.ar    1  UNL1        0.1412
     30 C          59.7296   86.3663    8.2892 C.ar    1  UNL1        0.0665
     31 C          59.2520   87.5300    7.4720 C.ar    1  UNL1        0.1432
     32 F          58.3092   87.3059    6.3270 F       1  UNL1       -0.2041
     33 C          59.7173   88.9178    7.7997 C.ar    1  UNL1        0.0298
     34 C          60.6601   89.1419    8.9446 C.ar    1  UNL1        0.0053
     35 C          61.1377   87.9783    9.7618 C.ar    1  UNL1        0.0341
@<TRIPOS>UNITY_ATOM_ATTR
2 1
charge 1
3 1
charge -1
@<TRIPOS>BOND
     1     1     2    1
     2     2     3    1
     3     2     4    1
     4     4     5    1
     5     5     6    1
     6     6     7    1
     7     7     8    1
     8     6     9    1
     9     9    10    2
    10     9    11   am
    11    11    12    1
    12    12    13   ar
    13    13    14   ar
    14    14    19    1
    15    19    20    2
    16    20    21    1
    17    21    22   ar
    18    22    23   ar
    19    23    24   ar
    20    24    25   ar
    21    25    26   ar
    22    26    27    1
    23    27    28    1
    24    28    29    1
    25    29    30   ar
    26    30    31   ar
    27    31    32    1
    28    31    33   ar
    29    33    34   ar
    30    34    35   ar
    31    14    15   ar
    32    15    16   ar
    33    16    17   ar
    34     8     2    1
    35    17    12   ar
    36    17     6    1
    37    35    20    1
    38    26    21   ar
    39    35    29   ar
    40    11    18    1
@<TRIPOS>MOLECULE
*****
 35 40 0 0 0
SMALL
GASTEIGER

@<TRIPOS>ATOM
      1 C          65.4305   93.8168    0.9307 C.3     1  UNL1        0.1661
      2 N          64.2428   94.6257    1.3606 N.3     1  UNL1        0.2624
      3 O          65.3216   95.3084    2.1481 O.co2   1  UNL1       -0.7718
      4 C          63.4296   95.6718    2.0639 C.3     1  UNL1        0.1054
      5 C          61.9503   95.7543    1.8305 C.3     1  UNL1        0.0737
      6 C          61.2839   94.7907    0.8938 C.3     1  UNL1        0.1003
      7 C          62.0969   93.7447    0.1904 C.3     1  UNL1        0.0737
      8 C          63.5764   93.6622    0.4238 C.3     1  UNL1        0.1054
      9 C          60.3457   95.7779    1.5226 C.2     1  UNL1        0.2294
     10 O          60.7224   96.8559    2.4954 O.2     1  UNL1       -0.2745
     11 N          58.9649   95.4978    1.0080 N.am    1  UNL1       -0.2839
     12 C          59.0496   94.3376    0.0611 C.ar    1  UNL1        0.0467
     13 C          58.0068   93.6226   -0.7459 C.ar    1  UNL1        0.0144
     14 C          58.3973   92.4705   -1.6236 C.ar    1  UNL1        0.0012
     15 C          59.8304   92.0335   -1.6943 C.ar    1  UNL1       -0.0002
     16 C          60.8732   92.7485   -0.8872 C.ar    1  UNL1       -0.0026
     17 C          60.4828   93.9006   -0.0095 C.ar    1  UNL1       -0.0007
     18 H          58.1466   95.9892    1.2494 H       1  UNL1        0.1549
     19 C          57.3545   91.7554   -2.4307 C.2     1  UNL1        0.0001
     20 C          57.1303   92.1290   -3.8661 C.2     1  UNL1        0.0027
     21 C          58.0012   93.2294   -4.3958 C.ar    1  UNL1       -0.0004
     22 C          58.9414   93.7387   -3.3439 C.ar    1  UNL1       -0.0002
     23 C          59.9022   94.8439   -3.6683 C.ar    1  UNL1       -0.0000
     24 C          59.9228   95.4399   -5.0447 C.ar    1  UNL1       -0.0002
     25 C          58.9825   94.9306   -6.0966 C.ar    1  UNL1       -0.0007
     26 C          58.0218   93.8254   -5.7722 C.ar    1  UNL1        0.0212
     27 C          57.1765   93.4681   -6.9587 C.3     1  UNL1        0.2320
     28 O          56.1018   92.4267   -7.0620 O.3     1  UNL1       -0.4706
     29 C          55.6071   91.4853   -6.0041 C.ar    1  UNL1        0.1412
     30 C          54.5142   90.6002   -6.5258 C.ar    1  UNL1        0.0665
     31 C          53.8789   89.5827   -5.6251 C.ar    1  UNL1        0.1432
     32 F          52.7860   88.6977   -6.1468 F       1  UNL1       -0.2041
     33 C          54.3366   89.4502   -4.2029 C.ar    1  UNL1        0.0298
     34 C          55.4296   90.3353   -3.6812 C.ar    1  UNL1        0.0053
     35 C          56.0648   91.3528   -4.5817 C.ar    1  UNL1        0.0341
@<TRIPOS>UNITY_ATOM_ATTR
2 1
charge 1
3 1
charge -1
@<TRIPOS>BOND
     1     1     2    1
     2     2     3    1
     3     2     4    1
     4     4     5    1
     5     5     6    1
     6     6     7    1
     7     7     8    1
     8     6     9    1
     9     9    10    2
    10     9    11   am
    11    11    12    1
    12    12    13   ar
    13    13    14   ar
    14    14    19    1
    15    19    20    2
    16    20    21    1
    17    21    22   ar
    18    22    23   ar
    19    23    24   ar
    20    24    25   ar
    21    25    26   ar
    22    26    27    1
    23    27    28    1
    24    28    29    1
    25    29    30   ar
    26    30    31   ar
    27    31    32    1
    28    31    33   ar
    29    33    34   ar
    30    34    35   ar
    31    14    15   ar
    32    15    16   ar
    33    16    17   ar
    34     8     2    1
    35    17    12   ar
    36    17     6    1
    37    35    20    1
    38    26    21   ar
    39    35    29   ar
    40    11    18    1
@<TRIPOS>MOLECULE
*****
 35 40 0 0 0
SMALL
GASTEIGER

@<TRIPOS>ATOM
      1 C          62.5378   90.8825    2.5654 C.3     1  UNL1        0.1661
      2 N          62.7922   92.3199    2.2204 N.3     1  UNL1        0.2624
      3 O          64.0919   91.9781    2.8867 O.co2   1  UNL1       -0.7718
      4 C          63.4979   93.6387    2.1068 C.3     1  UNL1        0.1054
      5 C          62.8156   94.8000    1.4467 C.3     1  UNL1        0.0737
      6 C          61.4276   94.6427    0.9001 C.3     1  UNL1        0.1003
      7 C          60.7218   93.3239    1.0137 C.3     1  UNL1        0.0737
      8 C          61.4042   92.1626    1.6738 C.3     1  UNL1        0.1054
      9 C          62.0045   96.0147    0.7143 C.2     1  UNL1        0.2294
     10 O          63.3651   96.4664    1.1560 O.2     1  UNL1       -0.2745
     11 N          60.9821   96.8559    0.0093 N.am    1  UNL1       -0.2839
     12 C          59.7733   96.0037   -0.2407 C.ar    1  UNL1        0.0467
     13 C          58.4574   96.2966   -0.8985 C.ar    1  UNL1        0.0144
     14 C          57.4169   95.2215   -1.0057 C.ar    1  UNL1        0.0012
     15 C          57.6922   93.8536   -0.4552 C.ar    1  UNL1       -0.0002
     16 C          59.0081   93.5608    0.2027 C.ar    1  UNL1       -0.0026
     17 C          60.0487   94.6358    0.3099 C.ar    1  UNL1       -0.0007
     18 H          61.0862   97.8014   -0.2448 H       1  UNL1        0.1549
     19 C          56.1010   95.5143   -1.6635 C.2     1  UNL1        0.0001
     20 C          55.9720   95.4255   -3.1553 C.2     1  UNL1        0.0027
     21 C          57.2180   95.0362   -3.8943 C.ar    1  UNL1       -0.0004
     22 C          58.3649   94.8112   -2.9542 C.ar    1  UNL1       -0.0002
     23 C          59.7077   94.4130   -3.4912 C.ar    1  UNL1       -0.0000
     24 C          59.9035   94.2398   -4.9682 C.ar    1  UNL1       -0.0002
     25 C          58.7565   94.4648   -5.9083 C.ar    1  UNL1       -0.0007
     26 C          57.4137   94.8630   -5.3713 C.ar    1  UNL1        0.0212
     27 C          56.4119   95.0364   -6.4742 C.3     1  UNL1        0.2320
     28 O          54.9669   95.4257   -6.3725 O.3     1  UNL1       -0.4706
     29 C          54.1668   95.7378   -5.1426 C.ar    1  UNL1        0.1412
     30 C          52.7480   96.0837   -5.4851 C.ar    1  UNL1        0.0665
     31 C          51.7764   96.4295   -4.3957 C.ar    1  UNL1        0.1432
     32 F          50.3576   96.7753   -4.7382 F       1  UNL1       -0.2041
     33 C          52.2237   96.4294   -2.9640 C.ar    1  UNL1        0.0298
     34 C          53.6425   96.0835   -2.6216 C.ar    1  UNL1        0.0053
     35 C          54.6141   95.7377   -3.7108 C.ar    1  UNL1        0.0341
@<TRIPOS>UNITY_ATOM_ATTR
2 1
charge 1
3 1
charge -1
@<TRIPOS>BOND
     1     1     2    1
     2     2     3    1
     3     2     4    1
     4     4     5    1
     5     5     6    1
     6     6     7    1
     7     7     8    1
     8     6     9    1
     9     9    10    2
    10     9    11   am
    11    11    12    1
    12    12    13   ar
    13    13    14   ar
    14    14    19    1
    15    19    20    2
    16    20    21    1
    17    21    22   ar
    18    22    23   ar
    19    23    24   ar
    20    24    25   ar
    21    25    26   ar
    22    26    27    1
    23    27    28    1
    24    28    29    1
    25    29    30   ar
    26    30    31   ar
    27    31    32    1
    28    31    33   ar
    29    33    34   ar
    30    34    35   ar
    31    14    15   ar
    32    15    16   ar
    33    16    17   ar
    34     8     2    1
    35    17    12   ar
    36    17     6    1
    37    35    20    1
    38    26    21   ar
    39    35    29   ar
    40    11    18    1
