@<TRIPOS>MOLECULE
*****
 17 18 0 0 0
SMALL
GASTEIGER

@<TRIPOS>ATOM
      1 CG         63.5974   83.5578   12.2781 C.2     1  TRP1       -0.0002
      2 CD1        64.4783   82.5354   11.6233 C.2     1  TRP1        0.0942
      3 NE1        64.4771   82.8000   10.1468 N.2     1  TRP1       -0.2482
      4 CE2        63.5954   83.9858    9.8891 C.2     1  TRP1        0.0631
      5 CZ2        63.2175   84.6997    8.6251 C.3     1  TRP1        0.0717
      6 CH2        62.2958   85.8818    8.6784 C.2     1  TRP1       -0.0198
      7 CZ3        61.7521   86.3502    9.9956 C.2     1  TRP1       -0.0042
      8 CE3        62.1301   85.6364   11.2596 C.2     1  TRP1        0.0006
      9 CD2        63.0518   84.4542   11.2063 C.2     1  TRP1        0.0115
     10 CB         63.3122   83.6650   13.7468 C.3     1  TRP1        0.0491
     11 N          65.6262   84.5100   14.5727 N.3     1  TRP1       -0.3176
     12 CA         64.1284   84.5865   14.6040 C.3     1  TRP1        0.0923
     13 H1         65.9158   83.7822   13.9194 H       1  TRP1        0.1191
     14 H2         65.9749   84.2882   15.5052 H       1  TRP1        0.1191
     15 C          63.4469   85.5845   15.4926 C.2     1  TRP1        0.0647
     16 O          63.9089   87.0114   15.5104 O.co2   1  TRP1       -0.5478
     17 OXT        62.3033   85.1554   16.3633 O.co2   1  TRP1       -0.5478
@<TRIPOS>UNITY_ATOM_ATTR
16 1
charge -1
@<TRIPOS>BOND
     1    12    11    1
     2    12    10    1
     3    10     1    1
     4     1     2    2
     5     2     3    1
     6     3     4    2
     7     4     5    1
     8     5     6    1
     9     6     7    2
    10     7     8    1
    11     8     9    2
    12    12    15    1
    13    15    16   ar
    14    15    17   ar
    15     9     1    1
    16     9     4    1
    17    11    13    1
    18    11    14    1
@<TRIPOS>MOLECULE
*****
 17 18 0 0 0
SMALL
GASTEIGER

@<TRIPOS>ATOM
      1 CG         62.2184   85.7352    9.9620 C.2     1  TRP1       -0.0002
      2 CD1        61.5759   86.4484   11.1147 C.2     1  TRP1        0.0942
      3 NE1        61.9363   85.7149   12.3725 N.2     1  TRP1       -0.2482
      4 CE2        62.8014   84.5484   11.9973 C.2     1  TRP1        0.0631
      5 CZ2        63.4529   83.4765   12.8196 C.3     1  TRP1        0.0717
      6 CH2        64.2788   82.4170   12.1522 C.2     1  TRP1       -0.0198
      7 CZ3        64.4532   82.4295   10.6625 C.2     1  TRP1       -0.0042
      8 CE3        63.8016   83.5015    9.8401 C.2     1  TRP1        0.0006
      9 CD2        62.9757   84.5609   10.5075 C.2     1  TRP1        0.0115
     10 CB         62.1206   86.1274    8.5175 C.3     1  TRP1        0.0491
     11 N          60.5059   84.9688    6.8440 N.3     1  TRP1       -0.3176
     12 CA         60.7967   86.0753    7.8141 C.3     1  TRP1        0.0923
     13 H1         61.3123   84.3471    6.7856 H       1  TRP1        0.1191
     14 H2         60.3148   85.3651    5.9237 H       1  TRP1        0.1191
     15 C          59.7636   87.1296    8.0810 C.2     1  TRP1        0.0647
     16 O          60.1870   88.5019    8.5142 O.co2   1  TRP1       -0.5478
     17 OXT        58.3072   86.8116    7.9146 O.co2   1  TRP1       -0.5478
@<TRIPOS>UNITY_ATOM_ATTR
16 1
charge -1
@<TRIPOS>BOND
     1    12    11    1
     2    12    10    1
     3    10     1    1
     4     1     2    2
     5     2     3    1
     6     3     4    2
     7     4     5    1
     8     5     6    1
     9     6     7    2
    10     7     8    1
    11     8     9    2
    12    12    15    1
    13    15    16   ar
    14    15    17   ar
    15     9     1    1
    16     9     4    1
    17    11    13    1
    18    11    14    1
@<TRIPOS>MOLECULE
*****
 17 18 0 0 0
SMALL
GASTEIGER

@<TRIPOS>ATOM
      1 CG         63.2265   83.6793   13.8239 C.2     1  TRP1       -0.0002
      2 CD1        63.9506   82.3658   13.8097 C.2     1  TRP1        0.0942
      3 NE1        64.2749   82.0307   12.3840 N.2     1  TRP1       -0.2482
      4 CE2        63.7511   83.1371   11.5171 C.2     1  TRP1        0.0631
      5 CZ2        63.7805   83.3484   10.0324 C.3     1  TRP1        0.0717
      6 CH2        63.1618   84.5786    9.4375 C.2     1  TRP1       -0.0198
      7 CZ3        62.5139   85.5975   10.3275 C.2     1  TRP1       -0.0042
      8 CE3        62.4845   85.3862   11.8122 C.2     1  TRP1        0.0006
      9 CD2        63.1031   84.1560   12.4070 C.2     1  TRP1        0.0115
     10 CB         62.7153   84.3912   15.0412 C.3     1  TRP1        0.0491
     11 N          65.0490   85.4569   15.4516 N.3     1  TRP1       -0.3176
     12 CA         63.5769   85.4049   15.7343 C.3     1  TRP1        0.0923
     13 H1         65.2899   84.7375   14.7698 H       1  TRP1        0.1191
     14 H2         65.5671   85.2940   16.3150 H       1  TRP1        0.1191
     15 C          62.9661   86.3666   16.7102 C.2     1  TRP1        0.0647
     16 O          62.1259   85.8542   17.8422 O.co2   1  TRP1       -0.5478
     17 OXT        63.1957   87.8406   16.5539 O.co2   1  TRP1       -0.5478
@<TRIPOS>UNITY_ATOM_ATTR
16 1
charge -1
@<TRIPOS>BOND
     1    12    11    1
     2    12    10    1
     3    10     1    1
     4     1     2    2
     5     2     3    1
     6     3     4    2
     7     4     5    1
     8     5     6    1
     9     6     7    2
    10     7     8    1
    11     8     9    2
    12    12    15    1
    13    15    16   ar
    14    15    17   ar
    15     9     1    1
    16     9     4    1
    17    11    13    1
    18    11    14    1
@<TRIPOS>MOLECULE
*****
 17 18 0 0 0
SMALL
GASTEIGER

@<TRIPOS>ATOM
      1 CG         65.5601   93.0703   11.2289 C.2     1  TRP1       -0.0002
      2 CD1        66.0754   93.2774   12.6223 C.2     1  TRP1        0.0942
      3 NE1        65.3609   92.3187   13.5280 N.2     1  TRP1       -0.2482
      4 CE2        64.4040   91.5190   12.6944 C.2     1  TRP1        0.0631
      5 CZ2        63.4365   90.4279   13.0456 C.3     1  TRP1        0.0717
      6 CH2        62.5921   89.8014   11.9759 C.2     1  TRP1       -0.0198
      7 CZ3        62.7152   90.2659   10.5549 C.2     1  TRP1       -0.0042
      8 CE3        63.6827   91.3570   10.2037 C.2     1  TRP1        0.0006
      9 CD2        64.5271   91.9835   11.2735 C.2     1  TRP1        0.0115
     10 CB         66.0005   93.8185   10.0057 C.3     1  TRP1        0.0491
     11 N          68.0882   95.2556    9.4346 N.3     1  TRP1       -0.3176
     12 CA         67.4593   93.9143    9.6698 C.3     1  TRP1        0.0923
     13 H1         67.3837   95.9852    9.5428 H       1  TRP1        0.1191
     14 H2         68.4714   95.2905    8.4899 H       1  TRP1        0.1191
     15 C          68.2891   92.6688    9.5691 C.2     1  TRP1        0.0647
     16 O          68.6757   92.1319    8.2229 O.co2   1  TRP1       -0.5478
     17 OXT        68.7323   91.9603   10.8147 O.co2   1  TRP1       -0.5478
@<TRIPOS>UNITY_ATOM_ATTR
16 1
charge -1
@<TRIPOS>BOND
     1    12    11    1
     2    12    10    1
     3    10     1    1
     4     1     2    2
     5     2     3    1
     6     3     4    2
     7     4     5    1
     8     5     6    1
     9     6     7    2
    10     7     8    1
    11     8     9    2
    12    12    15    1
    13    15    16   ar
    14    15    17   ar
    15     9     1    1
    16     9     4    1
    17    11    13    1
    18    11    14    1
@<TRIPOS>MOLECULE
*****
 17 18 0 0 0
SMALL
GASTEIGER

@<TRIPOS>ATOM
      1 CG         65.4021   91.7293   13.1155 C.2     1  TRP1       -0.0002
      2 CD1        65.8626   92.8799   12.2705 C.2     1  TRP1        0.0942
      3 NE1        65.0604   92.8744   11.0031 N.2     1  TRP1       -0.2482
      4 CE2        64.1042   91.7203   11.0647 C.2     1  TRP1        0.0631
      5 CZ2        63.0684   91.2225   10.1007 C.3     1  TRP1        0.0717
      6 CH2        62.2439   90.0169   10.4423 C.2     1  TRP1       -0.0198
      7 CZ3        62.4551   89.3092   11.7478 C.2     1  TRP1       -0.0042
      8 CE3        63.4908   89.8071   12.7118 C.2     1  TRP1        0.0006
      9 CD2        64.3154   91.0126   12.3703 C.2     1  TRP1        0.0115
     10 CB         65.9349   91.3601   14.4682 C.3     1  TRP1        0.0491
     11 N          65.4783   92.9120   16.5013 N.3     1  TRP1       -0.3176
     12 CA         66.3918   92.4323   15.4126 C.3     1  TRP1        0.0923
     13 H1         64.5948   92.4046   16.4520 H       1  TRP1        0.1191
     14 H2         65.3041   93.9102   16.3838 H       1  TRP1        0.1191
     15 C          67.7623   93.0248   15.2681 C.2     1  TRP1        0.0647
     16 O          68.1804   94.1696   16.1425 O.co2   1  TRP1       -0.5478
     17 OXT        68.7145   92.4724   14.2493 O.co2   1  TRP1       -0.5478
@<TRIPOS>UNITY_ATOM_ATTR
16 1
charge -1
@<TRIPOS>BOND
     1    12    11    1
     2    12    10    1
     3    10     1    1
     4     1     2    2
     5     2     3    1
     6     3     4    2
     7     4     5    1
     8     5     6    1
     9     6     7    2
    10     7     8    1
    11     8     9    2
    12    12    15    1
    13    15    16   ar
    14    15    17   ar
    15     9     1    1
    16     9     4    1
    17    11    13    1
    18    11    14    1
@<TRIPOS>MOLECULE
*****
 17 18 0 0 0
SMALL
GASTEIGER

@<TRIPOS>ATOM
      1 CG         64.7167   90.9392   13.6052 C.2     1  TRP1       -0.0002
      2 CD1        64.6643   89.7712   14.5448 C.2     1  TRP1        0.0942
      3 NE1        63.8273   88.7015   13.9083 N.2     1  TRP1       -0.2482
      4 CE2        63.3625   89.2083   12.5753 C.2     1  TRP1        0.0631
      5 CZ2        62.5097   88.5892   11.5078 C.3     1  TRP1        0.0717
      6 CH2        62.2066   89.3531   10.2531 C.2     1  TRP1       -0.0198
      7 CZ3        62.7562   90.7362   10.0657 C.2     1  TRP1       -0.0042
      8 CE3        63.6090   91.3553   11.1331 C.2     1  TRP1        0.0006
      9 CD2        63.9121   90.5914   12.3879 C.2     1  TRP1        0.0115
     10 CB         65.4456   92.2288   13.8413 C.3     1  TRP1        0.0491
     11 N          65.4552   92.8018   16.3754 N.3     1  TRP1       -0.3176
     12 CA         66.1967   92.4421   15.1221 C.3     1  TRP1        0.0923
     13 H1         64.4567   92.8585   16.1753 H       1  TRP1        0.1191
     14 H2         65.7850   93.7039   16.7186 H       1  TRP1        0.1191
     15 C          67.6893   92.2957   15.1496 C.2     1  TRP1        0.0647
     16 O          68.4633   92.2608   13.8651 O.co2   1  TRP1       -0.5478
     17 OXT        68.4079   92.1843   16.4615 O.co2   1  TRP1       -0.5478
@<TRIPOS>UNITY_ATOM_ATTR
16 1
charge -1
@<TRIPOS>BOND
     1    12    11    1
     2    12    10    1
     3    10     1    1
     4     1     2    2
     5     2     3    1
     6     3     4    2
     7     4     5    1
     8     5     6    1
     9     6     7    2
    10     7     8    1
    11     8     9    2
    12    12    15    1
    13    15    16   ar
    14    15    17   ar
    15     9     1    1
    16     9     4    1
    17    11    13    1
    18    11    14    1
@<TRIPOS>MOLECULE
*****
 17 18 0 0 0
SMALL
GASTEIGER

@<TRIPOS>ATOM
      1 CG         61.6488   86.1548    9.5913 C.2     1  TRP1       -0.0002
      2 CD1        62.0458   85.8487    8.1775 C.2     1  TRP1        0.0942
      3 NE1        63.0679   84.7513    8.2105 N.2     1  TRP1       -0.2482
      4 CE2        63.3026   84.3792    9.6445 C.2     1  TRP1        0.0631
      5 CZ2        64.2016   83.3627   10.2835 C.3     1  TRP1        0.0717
      6 CH2        64.2235   83.2135   11.7759 C.2     1  TRP1       -0.0198
      7 CZ3        63.3464   84.0810   12.6293 C.2     1  TRP1       -0.0042
      8 CE3        62.4474   85.0975   11.9903 C.2     1  TRP1        0.0006
      9 CD2        62.4255   85.2467   10.4979 C.2     1  TRP1        0.0115
     10 CB         60.6503   87.1878   10.0227 C.3     1  TRP1        0.0491
     11 N          60.8790   89.6807    9.3274 N.3     1  TRP1       -0.3176
     12 CA         60.2947   88.3176    9.1022 C.3     1  TRP1        0.0923
     13 H1         61.4909   89.6578   10.1431 H       1  TRP1        0.1191
     14 H2         60.1268   90.3512    9.4853 H       1  TRP1        0.1191
     15 C          59.3549   88.0843    7.9567 C.2     1  TRP1        0.0647
     16 O          59.2532   89.0944    6.8524 O.co2   1  TRP1       -0.5478
     17 OXT        58.5168   86.8410    7.9155 O.co2   1  TRP1       -0.5478
@<TRIPOS>UNITY_ATOM_ATTR
16 1
charge -1
@<TRIPOS>BOND
     1    12    11    1
     2    12    10    1
     3    10     1    1
     4     1     2    2
     5     2     3    1
     6     3     4    2
     7     4     5    1
     8     5     6    1
     9     6     7    2
    10     7     8    1
    11     8     9    2
    12    12    15    1
    13    15    16   ar
    14    15    17   ar
    15     9     1    1
    16     9     4    1
    17    11    13    1
    18    11    14    1
@<TRIPOS>MOLECULE
*****
 17 18 0 0 0
SMALL
GASTEIGER

@<TRIPOS>ATOM
      1 CG         65.6800   93.1309   12.1179 C.2     1  TRP1       -0.0002
      2 CD1        66.5995   93.4429   13.2612 C.2     1  TRP1        0.0942
      3 NE1        66.4119   92.3857   14.3086 N.2     1  TRP1       -0.2482
      4 CE2        65.3765   91.4203   13.8127 C.2     1  TRP1        0.0631
      5 CZ2        64.7871   90.1814   14.4190 C.3     1  TRP1        0.0717
      6 CH2        63.7453   89.4031   13.6714 C.2     1  TRP1       -0.0198
      7 CZ3        63.2930   89.8637   12.3174 C.2     1  TRP1       -0.0042
      8 CE3        63.8823   91.1026   11.7111 C.2     1  TRP1        0.0006
      9 CD2        64.9241   91.8809   12.4587 C.2     1  TRP1        0.0115
     10 CB         65.5408   93.9289   10.8554 C.3     1  TRP1        0.0491
     11 N          65.7172   96.4134   11.5944 N.3     1  TRP1       -0.3176
     12 CA         66.1941   95.2745   10.7427 C.3     1  TRP1        0.0923
     13 H1         64.9490   96.0970   12.1862 H       1  TRP1        0.1191
     14 H2         65.3945   97.1737   10.9959 H       1  TRP1        0.1191
     15 C          67.3242   95.4811    9.7782 C.2     1  TRP1        0.0647
     16 O          67.4202   96.7586    8.9980 O.co2   1  TRP1       -0.5478
     17 OXT        68.3582   94.4103    9.5941 O.co2   1  TRP1       -0.5478
@<TRIPOS>UNITY_ATOM_ATTR
16 1
charge -1
@<TRIPOS>BOND
     1    12    11    1
     2    12    10    1
     3    10     1    1
     4     1     2    2
     5     2     3    1
     6     3     4    2
     7     4     5    1
     8     5     6    1
     9     6     7    2
    10     7     8    1
    11     8     9    2
    12    12    15    1
    13    15    16   ar
    14    15    17   ar
    15     9     1    1
    16     9     4    1
    17    11    13    1
    18    11    14    1
@<TRIPOS>MOLECULE
*****
 17 18 0 0 0
SMALL
GASTEIGER

@<TRIPOS>ATOM
      1 CG         61.9529   89.1719   11.1263 C.2     1  TRP1       -0.0002
      2 CD1        60.9736   90.3049   11.0401 C.2     1  TRP1        0.0942
      3 NE1        59.9813   89.9788    9.9636 N.2     1  TRP1       -0.2482
      4 CE2        60.3472   88.6444    9.3845 C.2     1  TRP1        0.0631
      5 CZ2        59.7283   87.8189    8.2957 C.3     1  TRP1        0.0717
      6 CH2        60.3280   86.4948    7.9255 C.2     1  TRP1       -0.0198
      7 CZ3        61.5466   85.9961    8.6441 C.2     1  TRP1       -0.0042
      8 CE3        62.1655   86.8216    9.7329 C.2     1  TRP1        0.0006
      9 CD2        61.5658   88.1457   10.1031 C.2     1  TRP1        0.0115
     10 CB         63.1153   89.0812   12.0700 C.3     1  TRP1        0.0491
     11 N          62.6749   90.0583   14.4368 N.3     1  TRP1       -0.3176
     12 CA         63.3359   90.1552   13.0938 C.3     1  TRP1        0.0923
     13 H1         62.1172   89.2054   14.4805 H       1  TRP1        0.1191
     14 H2         62.0702   90.8675   14.5774 H       1  TRP1        0.1191
     15 C          64.2174   91.3261   12.7745 C.2     1  TRP1        0.0647
     16 O          64.8755   92.0937   13.8825 O.co2   1  TRP1       -0.5478
     17 OXT        64.4407   91.7294   11.3471 O.co2   1  TRP1       -0.5478
@<TRIPOS>UNITY_ATOM_ATTR
16 1
charge -1
@<TRIPOS>BOND
     1    12    11    1
     2    12    10    1
     3    10     1    1
     4     1     2    2
     5     2     3    1
     6     3     4    2
     7     4     5    1
     8     5     6    1
     9     6     7    2
    10     7     8    1
    11     8     9    2
    12    12    15    1
    13    15    16   ar
    14    15    17   ar
    15     9     1    1
    16     9     4    1
    17    11    13    1
    18    11    14    1
