@<TRIPOS>MOLECULE
*****
 37 42 0 0 0
SMALL
GASTEIGER

@<TRIPOS>ATOM
      1 C          64.6459   89.9434   14.4576 C.ar    1  UNL1        0.1515
      2 N          65.6189   90.9181   15.0518 N.ar    1  UNL1       -0.2248
      3 C          65.8757   91.9933   14.0378 C.ar    1  UNL1        0.1173
      4 C          66.7458   93.2147   14.0685 C.ar    1  UNL1        0.0238
      5 C          66.8016   94.1258   12.8783 C.ar    1  UNL1        0.0208
      6 C          65.9872   93.8156   11.6574 C.ar    1  UNL1        0.0830
      7 N          65.1171   92.5942   11.6267 N.ar    1  UNL1       -0.2264
      8 C          65.0613   91.6830   12.8169 C.ar    1  UNL1        0.1665
      9 N          64.3013   90.4161   13.0764 N.ar    1  UNL1       -0.2754
     10 N          62.8004   90.1959   16.8093 N.pl3   1  UNL1       -0.3425
     11 C          63.1886   88.8383   16.3029 C.ar    1  UNL1        0.1282
     12 N          62.6541   87.6070   16.9724 N.ar    1  UNL1       -0.2295
     13 C          63.0422   86.2495   16.4661 C.ar    1  UNL1        0.1003
     14 C          63.9649   86.1233   15.2902 C.ar    1  UNL1        0.0209
     15 C          64.4995   87.3546   14.6207 C.ar    1  UNL1        0.0074
     16 C          64.1113   88.7121   15.1271 C.ar    1  UNL1        0.0657
     17 H          62.1948   90.2787   17.5811 H       1  UNL1        0.1437
     18 H          63.1513   91.0040   16.3700 H       1  UNL1        0.1437
     19 C          66.0430   94.7268   10.4672 C.ar    1  UNL1        0.0177
     20 C          66.9733   94.4206    9.3311 C.ar    1  UNL1        0.0015
     21 C          67.0291   95.3318    8.1409 C.ar    1  UNL1        0.0000
     22 C          66.1545   96.5493    8.0867 C.ar    1  UNL1        0.0000
     23 C          65.2241   96.8554    9.2229 C.ar    1  UNL1        0.0000
     24 C          65.1684   95.9442   10.4130 C.ar    1  UNL1        0.0015
     25 C          63.3616   89.7406   12.1221 C.ar    1  UNL1        0.0667
     26 C          63.1505   88.2576   12.2008 C.ar    1  UNL1        0.0173
     27 C          62.2108   87.5821   11.2466 C.ar    1  UNL1       -0.0015
     28 C          61.4821   88.3895   10.2136 C.ar    1  UNL1       -0.0097
     29 C          61.6932   89.8725   10.1348 C.ar    1  UNL1       -0.0015
     30 C          62.6329   90.5481   11.0891 C.ar    1  UNL1        0.0173
     31 C          60.5424   87.7140    9.2593 C.3     1  UNL1        0.0581
     32 N          60.8780   86.3854    9.8695 N.3     1  UNL1       -0.3200
     33 C          60.2069   89.0426    8.6492 C.3     1  UNL1        0.0185
     34 C          59.2672   88.3669    7.6949 C.3     1  UNL1        0.0033
     35 C          59.6028   87.0384    8.3051 C.3     1  UNL1        0.0185
     36 H          61.5565   86.5174   10.6196 H       1  UNL1        0.1191
     37 H          61.2747   85.7740    9.1559 H       1  UNL1        0.1191
@<TRIPOS>BOND
     1    10    11    1
     2    11    12   ar
     3    12    13   ar
     4    13    14   ar
     5    14    15   ar
     6    15    16   ar
     7    16     1    1
     8     1     2   ar
     9     2     3   ar
    10     3     4   ar
    11     4     5   ar
    12     5     6   ar
    13     6    19    1
    14    19    20   ar
    15    20    21   ar
    16    21    22   ar
    17    22    23   ar
    18    23    24   ar
    19     6     7   ar
    20     7     8   ar
    21     8     9   ar
    22     9    25    1
    23    25    26   ar
    24    26    27   ar
    25    27    28   ar
    26    28    31    1
    27    31    32    1
    28    31    33    1
    29    33    34    1
    30    34    35    1
    31    28    29   ar
    32    29    30   ar
    33    16    11   ar
    34     9     1   ar
    35    30    25   ar
    36     8     3   ar
    37    35    31    1
    38    24    19   ar
    39    10    17    1
    40    10    18    1
    41    32    36    1
    42    32    37    1
