@<TRIPOS>MOLECULE
*****
 28 30 0 0 0
SMALL
GASTEIGER

@<TRIPOS>ATOM
      1 C          65.8621   91.7337   13.8421 C.3     1  UNL1        0.0386
      2 C          65.3593   91.4821   15.2327 C.3     1  UNL1        0.0075
      3 C          64.0984   90.6976   15.4438 C.3     1  UNL1        0.0219
      4 C          63.3403   90.1646   14.2643 C.3     1  UNL1        0.0950
      5 N          63.8431   90.4161   12.8737 N.am    1  UNL1       -0.2636
      6 C          63.0850   89.8831   11.6942 C.2     1  UNL1        0.3077
      7 O          63.5878   90.1347   10.3036 O.2     1  UNL1       -0.2522
      8 N          61.8240   89.0986   11.9053 N.am    1  UNL1       -0.2681
      9 C          65.1040   91.2006   12.6625 C.3     1  UNL1        0.0989
     10 H          61.4940   88.9335   12.8181 H       1  UNL1        0.1564
     11 C          61.0660   88.5656   10.7258 C.ar    1  UNL1        0.0516
     12 C          60.9598   87.0850   10.5093 C.ar    1  UNL1        0.0156
     13 C          60.2019   86.5520    9.3299 C.ar    1  UNL1        0.0127
     14 C          59.5500   87.4995    8.3668 C.ar    1  UNL1        0.0578
     15 CL         58.7920   86.9664    7.1872 Cl      1  UNL1       -0.0822
     16 C          59.6562   88.9800    8.5833 C.ar    1  UNL1        0.0127
     17 C          60.4142   89.5130    9.7628 C.ar    1  UNL1        0.0156
     18 C          66.9228   92.4391   14.6341 C.ar    1  UNL1       -0.0211
     19 C          67.0456   93.9322   14.5602 C.ar    1  UNL1       -0.0042
     20 C          68.1062   94.6376   15.3522 C.ar    1  UNL1       -0.0003
     21 C          69.0441   93.8499   16.2182 C.ar    1  UNL1       -0.0000
     22 C          68.9213   92.3568   16.2921 C.ar    1  UNL1       -0.0003
     23 C          67.8607   91.6514   15.5001 C.ar    1  UNL1       -0.0042
     24 C          66.7333   92.2302   12.7265 C.3     1  UNL1        0.0230
     25 C          66.1130   92.7196   11.4515 C.3     1  UNL1        0.0726
     26 C          66.5590   95.2049   10.8395 C.3     1  UNL1        0.0897
     27 N          66.8225   93.7450   10.6175 N.3     1  UNL1       -0.2703
     28 C          67.7953   93.3104    9.5617 C.3     1  UNL1        0.0897
@<TRIPOS>BOND
     1    26    27    1
     2    27    28    1
     3    27    25    1
     4    25    24    1
     5    24     1    1
     6     1    18    1
     7    18    19   ar
     8    19    20   ar
     9    20    21   ar
    10    21    22   ar
    11    22    23   ar
    12     1     2    1
    13     2     3    1
    14     3     4    1
    15     4     5    1
    16     5     6   am
    17     6     7    2
    18     6     8   am
    19     8    11    1
    20    11    12   ar
    21    12    13   ar
    22    13    14   ar
    23    14    15    1
    24    14    16   ar
    25    16    17   ar
    26     5     9    1
    27     9     1    1
    28    23    18   ar
    29    17    11   ar
    30     8    10    1
@<TRIPOS>MOLECULE
*****
 28 30 0 0 0
SMALL
GASTEIGER

@<TRIPOS>ATOM
      1 C          65.5221   91.6580   13.3851 C.3     1  UNL1        0.0386
      2 C          66.0243   92.7470   12.4843 C.3     1  UNL1        0.0075
      3 C          65.4689   92.8896   11.0982 C.3     1  UNL1        0.0219
      4 C          64.4112   91.9430   10.6130 C.3     1  UNL1        0.0950
      5 N          63.9090   90.8540   11.5139 N.am    1  UNL1       -0.2636
      6 C          62.8513   89.9074   11.0287 C.2     1  UNL1        0.3077
      7 O          62.3491   88.8183   11.9297 O.2     1  UNL1       -0.2522
      8 N          62.2959   90.0500    9.6426 N.am    1  UNL1       -0.2681
      9 C          64.4644   90.7114   12.9000 C.3     1  UNL1        0.0989
     10 H          62.6255   90.7648    9.0513 H       1  UNL1        0.1564
     11 C          61.2383   89.1034    9.1576 C.ar    1  UNL1        0.0516
     12 C          60.1598   89.5921    8.2365 C.ar    1  UNL1        0.0156
     13 C          59.1021   88.6456    7.7514 C.ar    1  UNL1        0.0127
     14 C          59.1228   87.2104    8.1873 C.ar    1  UNL1        0.0578
     15 CL         58.0651   86.2639    7.7021 Cl      1  UNL1       -0.0822
     16 C          60.2012   86.7218    9.1082 C.ar    1  UNL1        0.0127
     17 C          61.2590   87.6683    9.5934 C.ar    1  UNL1        0.0156
     18 C          66.5265   92.3042   14.2927 C.ar    1  UNL1       -0.0211
     19 C          67.3619   91.4601   15.2089 C.ar    1  UNL1       -0.0042
     20 C          68.3663   92.1063   16.1164 C.ar    1  UNL1       -0.0003
     21 C          68.5352   93.5968   16.1077 C.ar    1  UNL1       -0.0000
     22 C          67.6998   94.4409   15.1915 C.ar    1  UNL1       -0.0003
     23 C          66.6954   93.7947   14.2840 C.ar    1  UNL1       -0.0042
     24 C          65.3686   90.7933   14.6012 C.3     1  UNL1        0.0230
     25 C          64.0086   90.3141   15.0140 C.3     1  UNL1        0.0726
     26 C          63.0969   88.6840   16.8201 C.3     1  UNL1        0.0897
     27 N          63.8308   88.9179   15.5329 N.3     1  UNL1       -0.2703
     28 C          64.3869   87.7558   14.7647 C.3     1  UNL1        0.0897
@<TRIPOS>BOND
     1    26    27    1
     2    27    28    1
     3    27    25    1
     4    25    24    1
     5    24     1    1
     6     1    18    1
     7    18    19   ar
     8    19    20   ar
     9    20    21   ar
    10    21    22   ar
    11    22    23   ar
    12     1     2    1
    13     2     3    1
    14     3     4    1
    15     4     5    1
    16     5     6   am
    17     6     7    2
    18     6     8   am
    19     8    11    1
    20    11    12   ar
    21    12    13   ar
    22    13    14   ar
    23    14    15    1
    24    14    16   ar
    25    16    17   ar
    26     5     9    1
    27     9     1    1
    28    23    18   ar
    29    17    11   ar
    30     8    10    1
@<TRIPOS>MOLECULE
*****
 28 30 0 0 0
SMALL
GASTEIGER

@<TRIPOS>ATOM
      1 C          63.0531   84.4393   13.4784 C.3     1  UNL1        0.0386
      2 C          63.3662   84.0094   14.8809 C.3     1  UNL1        0.0075
      3 C          63.9795   84.9820   15.8442 C.3     1  UNL1        0.0219
      4 C          64.2797   86.3845   15.4049 C.3     1  UNL1        0.0950
      5 N          63.9666   86.8143   14.0024 N.am    1  UNL1       -0.2636
      6 C          64.2668   88.2168   13.5631 C.2     1  UNL1        0.3077
      7 O          63.9537   88.6466   12.1605 O.2     1  UNL1       -0.2522
      8 N          64.8802   89.1894   14.5264 N.am    1  UNL1       -0.2681
      9 C          63.3533   85.8418   13.0391 C.3     1  UNL1        0.0989
     10 H          65.0857   88.9073   15.4469 H       1  UNL1        0.1564
     11 C          65.1804   90.5918   14.0870 C.ar    1  UNL1        0.0516
     12 C          66.0381   91.4779   14.9411 C.ar    1  UNL1        0.0156
     13 C          66.3383   92.8803   14.5018 C.ar    1  UNL1        0.0127
     14 C          65.7809   93.3967   13.2085 C.ar    1  UNL1        0.0578
     15 CL         66.0811   94.7992   12.7692 Cl      1  UNL1       -0.0822
     16 C          64.9232   92.5107   12.3544 C.ar    1  UNL1        0.0127
     17 C          64.6230   91.1082   12.7938 C.ar    1  UNL1        0.0156
     18 C          62.5880   83.0142   13.4240 C.ar    1  UNL1       -0.0211
     19 C          63.0798   82.1058   12.3364 C.ar    1  UNL1       -0.0042
     20 C          62.6147   80.6808   12.2820 C.ar    1  UNL1       -0.0003
     21 C          61.6578   80.1642   13.3152 C.ar    1  UNL1       -0.0000
     22 C          61.1660   81.0726   14.4028 C.ar    1  UNL1       -0.0003
     23 C          61.6311   82.4976   14.4572 C.ar    1  UNL1       -0.0042
     24 C          62.5784   84.3742   12.0569 C.3     1  UNL1        0.0230
     25 C          62.0303   85.6021   11.3923 C.3     1  UNL1        0.0726
     26 C          60.7741   86.3769    9.2541 C.3     1  UNL1        0.0897
     27 N          61.9257   85.6624    9.8971 N.3     1  UNL1       -0.2703
     28 C          62.9727   85.0082    9.0451 C.3     1  UNL1        0.0897
@<TRIPOS>BOND
     1    26    27    1
     2    27    28    1
     3    27    25    1
     4    25    24    1
     5    24     1    1
     6     1    18    1
     7    18    19   ar
     8    19    20   ar
     9    20    21   ar
    10    21    22   ar
    11    22    23   ar
    12     1     2    1
    13     2     3    1
    14     3     4    1
    15     4     5    1
    16     5     6   am
    17     6     7    2
    18     6     8   am
    19     8    11    1
    20    11    12   ar
    21    12    13   ar
    22    13    14   ar
    23    14    15    1
    24    14    16   ar
    25    16    17   ar
    26     5     9    1
    27     9     1    1
    28    23    18   ar
    29    17    11   ar
    30     8    10    1
@<TRIPOS>MOLECULE
*****
 28 30 0 0 0
SMALL
GASTEIGER

@<TRIPOS>ATOM
      1 C          63.9292   87.9423   14.6942 C.3     1  UNL1        0.0386
      2 C          63.7846   87.7101   16.1690 C.3     1  UNL1        0.0075
      3 C          63.5144   86.3289   16.6878 C.3     1  UNL1        0.0219
      4 C          63.3888   85.1798   15.7317 C.3     1  UNL1        0.0950
      5 N          63.5334   85.4121   14.2569 N.am    1  UNL1       -0.2636
      6 C          63.4078   84.2631   13.3008 C.2     1  UNL1        0.3077
      7 O          63.5525   84.4954   11.8260 O.2     1  UNL1       -0.2522
      8 N          63.1377   82.8818   13.8196 N.am    1  UNL1       -0.2681
      9 C          63.8036   86.7933   13.7381 C.3     1  UNL1        0.0989
     10 H          63.0427   82.7294   14.7876 H       1  UNL1        0.1564
     11 C          63.0121   81.7329   12.8635 C.ar    1  UNL1        0.0516
     12 C          63.3231   81.9299   11.4093 C.ar    1  UNL1        0.0156
     13 C          63.1976   80.7811   10.4532 C.ar    1  UNL1        0.0127
     14 C          62.7611   79.4351   10.9512 C.ar    1  UNL1        0.0578
     15 CL         62.6355   78.2862    9.9950 Cl      1  UNL1       -0.0822
     16 C          62.4501   79.2381   12.4053 C.ar    1  UNL1        0.0127
     17 C          62.5756   80.3870   13.3615 C.ar    1  UNL1        0.0156
     18 C          64.1291   89.3407   15.1989 C.ar    1  UNL1       -0.0211
     19 C          65.1732   90.2202   14.5775 C.ar    1  UNL1       -0.0042
     20 C          65.3731   91.6185   15.0822 C.ar    1  UNL1       -0.0003
     21 C          64.5288   92.1373   16.2083 C.ar    1  UNL1       -0.0000
     22 C          63.4847   91.2578   16.8297 C.ar    1  UNL1       -0.0003
     23 C          63.2848   89.8595   16.3250 C.ar    1  UNL1       -0.0042
     24 C          64.1432   88.6602   13.3946 C.3     1  UNL1        0.0230
     25 C          63.1374   88.5272   12.2898 C.3     1  UNL1        0.0726
     26 C          63.2423   90.9689   11.4082 C.3     1  UNL1        0.0897
     27 N          62.4458   89.7459   11.7544 N.3     1  UNL1       -0.2703
     28 C          60.9578   89.7414   11.5652 C.3     1  UNL1        0.0897
@<TRIPOS>BOND
     1    26    27    1
     2    27    28    1
     3    27    25    1
     4    25    24    1
     5    24     1    1
     6     1    18    1
     7    18    19   ar
     8    19    20   ar
     9    20    21   ar
    10    21    22   ar
    11    22    23   ar
    12     1     2    1
    13     2     3    1
    14     3     4    1
    15     4     5    1
    16     5     6   am
    17     6     7    2
    18     6     8   am
    19     8    11    1
    20    11    12   ar
    21    12    13   ar
    22    13    14   ar
    23    14    15    1
    24    14    16   ar
    25    16    17   ar
    26     5     9    1
    27     9     1    1
    28    23    18   ar
    29    17    11   ar
    30     8    10    1
@<TRIPOS>MOLECULE
*****
 28 30 0 0 0
SMALL
GASTEIGER

@<TRIPOS>ATOM
      1 C          65.6313   93.3544   11.3243 C.3     1  UNL1        0.0386
      2 C          64.8432   92.9918   10.1006 C.3     1  UNL1        0.0075
      3 C          63.9232   91.8073   10.1248 C.3     1  UNL1        0.0219
      4 C          63.7914   90.9854   11.3727 C.3     1  UNL1        0.0950
      5 N          64.5795   91.3480   12.5963 N.am    1  UNL1       -0.2636
      6 C          64.4477   90.5261   13.8442 C.2     1  UNL1        0.3077
      7 O          65.2359   90.8887   15.0678 O.2     1  UNL1       -0.2522
      8 N          63.5277   89.3416   13.8684 N.am    1  UNL1       -0.2681
      9 C          65.4995   92.5325   12.5721 C.3     1  UNL1        0.0989
     10 H          63.0104   89.1035   13.0653 H       1  UNL1        0.1564
     11 C          63.3959   88.5197   15.1162 C.ar    1  UNL1        0.0516
     12 C          62.8773   89.1473   16.3762 C.ar    1  UNL1        0.0156
     13 C          62.7455   88.3255   17.6240 C.ar    1  UNL1        0.0127
     14 C          63.1323   86.8763   17.6121 C.ar    1  UNL1        0.0578
     15 CL         63.0005   86.0545   18.8601 Cl      1  UNL1       -0.0822
     16 C          63.6509   86.2488   16.3522 C.ar    1  UNL1        0.0127
     17 C          63.7827   87.0706   15.1043 C.ar    1  UNL1        0.0156
     18 C          66.0925   94.4322   10.3885 C.ar    1  UNL1       -0.0211
     19 C          65.4294   95.7775   10.4090 C.ar    1  UNL1       -0.0042
     20 C          65.8906   96.8553    9.4732 C.ar    1  UNL1       -0.0003
     21 C          67.0149   96.5878    8.5171 C.ar    1  UNL1       -0.0000
     22 C          67.6781   95.2425    8.4966 C.ar    1  UNL1       -0.0003
     23 C          67.2169   94.1647    9.4323 C.ar    1  UNL1       -0.0042
     24 C          66.5796   94.0913   12.2230 C.3     1  UNL1        0.0230
     25 C          66.5842   93.8144   13.6971 C.3     1  UNL1        0.0726
     26 C          68.4466   92.0068   13.5790 C.3     1  UNL1        0.0897
     27 N          67.7486   93.1061   14.3236 N.3     1  UNL1       -0.2703
     28 C          68.2148   93.4970   15.6947 C.3     1  UNL1        0.0897
@<TRIPOS>BOND
     1    26    27    1
     2    27    28    1
     3    27    25    1
     4    25    24    1
     5    24     1    1
     6     1    18    1
     7    18    19   ar
     8    19    20   ar
     9    20    21   ar
    10    21    22   ar
    11    22    23   ar
    12     1     2    1
    13     2     3    1
    14     3     4    1
    15     4     5    1
    16     5     6   am
    17     6     7    2
    18     6     8   am
    19     8    11    1
    20    11    12   ar
    21    12    13   ar
    22    13    14   ar
    23    14    15    1
    24    14    16   ar
    25    16    17   ar
    26     5     9    1
    27     9     1    1
    28    23    18   ar
    29    17    11   ar
    30     8    10    1
@<TRIPOS>MOLECULE
*****
 28 30 0 0 0
SMALL
GASTEIGER

@<TRIPOS>ATOM
      1 C          63.1492   82.4910   12.3614 C.3     1  UNL1        0.0386
      2 C          63.2305   81.5975   13.5634 C.3     1  UNL1        0.0075
      3 C          63.4278   82.1908   14.9269 C.3     1  UNL1        0.0219
      4 C          63.5437   83.6776   15.0883 C.3     1  UNL1        0.0950
      5 N          63.4624   84.5711   13.8863 N.am    1  UNL1       -0.2636
      6 C          63.5783   86.0579   14.0477 C.2     1  UNL1        0.3077
      7 O          63.4969   86.9513   12.8456 O.2     1  UNL1       -0.2522
      8 N          63.7755   86.6511   15.4112 N.am    1  UNL1       -0.2681
      9 C          63.2651   83.9779   12.5228 C.3     1  UNL1        0.0989
     10 H          63.8289   86.0647   16.2002 H       1  UNL1        0.1564
     11 C          63.8914   88.1379   15.5726 C.ar    1  UNL1        0.0516
     12 C          63.2063   88.8237   16.7174 C.ar    1  UNL1        0.0156
     13 C          63.3222   90.3104   16.8788 C.ar    1  UNL1        0.0127
     14 C          64.1231   91.1114   15.8954 C.ar    1  UNL1        0.0578
     15 CL         64.2389   92.5983   16.0568 Cl      1  UNL1       -0.0822
     16 C          64.8081   90.4257   14.7507 C.ar    1  UNL1        0.0127
     17 C          64.6922   88.9389   14.5893 C.ar    1  UNL1        0.0156
     18 C          62.9853   81.1532   11.7030 C.ar    1  UNL1       -0.0211
     19 C          63.1609   81.0209   10.2193 C.ar    1  UNL1       -0.0042
     20 C          62.9970   79.6831    9.5610 C.ar    1  UNL1       -0.0003
     21 C          62.6574   78.4776   10.3865 C.ar    1  UNL1       -0.0000
     22 C          62.4818   78.6099   11.8702 C.ar    1  UNL1       -0.0003
     23 C          62.6457   79.9477   12.5285 C.ar    1  UNL1       -0.0042
     24 C          63.0109   82.9200   10.9306 C.3     1  UNL1        0.0230
     25 C          63.4774   84.2812   10.5073 C.3     1  UNL1        0.0726
     26 C          62.9485   85.2253    8.1454 C.3     1  UNL1        0.0897
     27 N          62.6216   85.1205    9.6055 N.3     1  UNL1       -0.2703
     28 C          61.4389   85.8550   10.1640 C.3     1  UNL1        0.0897
@<TRIPOS>BOND
     1    26    27    1
     2    27    28    1
     3    27    25    1
     4    25    24    1
     5    24     1    1
     6     1    18    1
     7    18    19   ar
     8    19    20   ar
     9    20    21   ar
    10    21    22   ar
    11    22    23   ar
    12     1     2    1
    13     2     3    1
    14     3     4    1
    15     4     5    1
    16     5     6   am
    17     6     7    2
    18     6     8   am
    19     8    11    1
    20    11    12   ar
    21    12    13   ar
    22    13    14   ar
    23    14    15    1
    24    14    16   ar
    25    16    17   ar
    26     5     9    1
    27     9     1    1
    28    23    18   ar
    29    17    11   ar
    30     8    10    1
@<TRIPOS>MOLECULE
*****
 28 30 0 0 0
SMALL
GASTEIGER

@<TRIPOS>ATOM
      1 C          61.9538   88.6681   10.3139 C.3     1  UNL1        0.0386
      2 C          61.6714   89.7324    9.2953 C.3     1  UNL1        0.0075
      3 C          62.3597   91.0618    9.3891 C.3     1  UNL1        0.0219
      4 C          63.3304   91.3269   10.5016 C.3     1  UNL1        0.0950
      5 N          63.6127   90.2627   11.5202 N.am    1  UNL1       -0.2636
      6 C          64.5834   90.5278   12.6327 C.2     1  UNL1        0.3077
      7 O          64.8657   89.4635   13.6512 O.2     1  UNL1       -0.2522
      8 N          65.2717   91.8573   12.7265 N.am    1  UNL1       -0.2681
      9 C          62.9244   88.9332   11.4264 C.3     1  UNL1        0.0989
     10 H          65.0864   92.5558   12.0579 H       1  UNL1        0.1564
     11 C          66.2423   92.1223   13.8389 C.ar    1  UNL1        0.0516
     12 C          67.7177   92.0231   13.5865 C.ar    1  UNL1        0.0156
     13 C          68.6883   92.2881   14.6989 C.ar    1  UNL1        0.0127
     14 C          68.1838   92.6524   16.0637 C.ar    1  UNL1        0.0578
     15 CL         69.1545   92.9175   17.1762 Cl      1  UNL1       -0.0822
     16 C          66.7085   92.7516   16.3162 C.ar    1  UNL1        0.0127
     17 C          65.7378   92.4866   15.2037 C.ar    1  UNL1        0.0156
     18 C          60.9614   87.9462    9.4511 C.ar    1  UNL1       -0.0211
     19 C          61.2818   86.5797    8.9220 C.ar    1  UNL1       -0.0042
     20 C          60.2895   85.8579    8.0593 C.ar    1  UNL1       -0.0003
     21 C          58.9769   86.5026    7.7257 C.ar    1  UNL1       -0.0000
     22 C          58.6565   87.8691    8.2548 C.ar    1  UNL1       -0.0003
     23 C          59.6488   88.5909    9.1175 C.ar    1  UNL1       -0.0042
     24 C          61.8915   87.3531   11.0329 C.3     1  UNL1        0.0230
     25 C          62.8587   87.0574   12.1405 C.3     1  UNL1        0.0726
     26 C          62.4938   84.5055   11.8164 C.3     1  UNL1        0.0897
     27 N          63.0431   85.6476   12.6188 N.3     1  UNL1       -0.2703
     28 C          63.7768   85.3801   13.8995 C.3     1  UNL1        0.0897
@<TRIPOS>BOND
     1    26    27    1
     2    27    28    1
     3    27    25    1
     4    25    24    1
     5    24     1    1
     6     1    18    1
     7    18    19   ar
     8    19    20   ar
     9    20    21   ar
    10    21    22   ar
    11    22    23   ar
    12     1     2    1
    13     2     3    1
    14     3     4    1
    15     4     5    1
    16     5     6   am
    17     6     7    2
    18     6     8   am
    19     8    11    1
    20    11    12   ar
    21    12    13   ar
    22    13    14   ar
    23    14    15    1
    24    14    16   ar
    25    16    17   ar
    26     5     9    1
    27     9     1    1
    28    23    18   ar
    29    17    11   ar
    30     8    10    1
@<TRIPOS>MOLECULE
*****
 28 30 0 0 0
SMALL
GASTEIGER

@<TRIPOS>ATOM
      1 C          61.1034   94.6215   -0.3075 C.3     1  UNL1        0.0386
      2 C          61.3006   95.6710    0.7457 C.3     1  UNL1        0.0075
      3 C          60.2035   96.6494    1.0442 C.3     1  UNL1        0.0219
      4 C          58.9092   96.5782    0.2894 C.3     1  UNL1        0.0950
      5 N          58.7120   95.5287   -0.7639 N.am    1  UNL1       -0.2636
      6 C          57.4177   95.4574   -1.5188 C.2     1  UNL1        0.3077
      7 O          57.2206   94.4078   -2.5721 O.2     1  UNL1       -0.2522
      8 N          56.3206   96.4358   -1.2203 N.am    1  UNL1       -0.2681
      9 C          59.8091   94.5503   -1.0624 C.3     1  UNL1        0.0989
     10 H          56.4500   97.1247   -0.5290 H       1  UNL1        0.1564
     11 C          55.0264   96.3646   -1.9752 C.ar    1  UNL1        0.0516
     12 C          53.8028   95.8018   -1.3145 C.ar    1  UNL1        0.0156
     13 C          52.5086   95.7305   -2.0692 C.ar    1  UNL1        0.0127
     14 C          52.4378   96.2219   -3.4847 C.ar    1  UNL1        0.0578
     15 CL         51.1435   96.1506   -4.2396 Cl      1  UNL1       -0.0822
     16 C          53.6613   96.7846   -4.1454 C.ar    1  UNL1        0.0127
     17 C          54.9556   96.8559   -3.3906 C.ar    1  UNL1        0.0156
     18 C          62.4974   94.2879    0.1348 C.ar    1  UNL1       -0.0211
     19 C          62.7270   93.1780    1.1173 C.ar    1  UNL1       -0.0042
     20 C          64.1210   92.8444    1.5596 C.ar    1  UNL1       -0.0003
     21 C          65.2852   93.6208    1.0195 C.ar    1  UNL1       -0.0000
     22 C          65.0555   94.7308    0.0370 C.ar    1  UNL1       -0.0003
     23 C          63.6616   95.0643   -0.4053 C.ar    1  UNL1       -0.0042
     24 C          61.3903   93.4560   -1.2072 C.3     1  UNL1        0.0230
     25 C          61.1314   93.5644   -2.6807 C.3     1  UNL1        0.0726
     26 C          62.1997   94.6357   -4.7928 C.3     1  UNL1        0.0897
     27 N          62.2806   93.6824   -3.6375 N.3     1  UNL1       -0.2703
     28 C          63.5106   92.8472   -3.4390 C.3     1  UNL1        0.0897
@<TRIPOS>BOND
     1    26    27    1
     2    27    28    1
     3    27    25    1
     4    25    24    1
     5    24     1    1
     6     1    18    1
     7    18    19   ar
     8    19    20   ar
     9    20    21   ar
    10    21    22   ar
    11    22    23   ar
    12     1     2    1
    13     2     3    1
    14     3     4    1
    15     4     5    1
    16     5     6   am
    17     6     7    2
    18     6     8   am
    19     8    11    1
    20    11    12   ar
    21    12    13   ar
    22    13    14   ar
    23    14    15    1
    24    14    16   ar
    25    16    17   ar
    26     5     9    1
    27     9     1    1
    28    23    18   ar
    29    17    11   ar
    30     8    10    1
@<TRIPOS>MOLECULE
*****
 28 30 0 0 0
SMALL
GASTEIGER

@<TRIPOS>ATOM
      1 C          63.3779   83.3577   12.1929 C.3     1  UNL1        0.0386
      2 C          62.5146   83.6386   10.9989 C.3     1  UNL1        0.0075
      3 C          62.1130   85.0479   10.6787 C.3     1  UNL1        0.0219
      4 C          62.5747   86.1763   11.5526 C.3     1  UNL1        0.0950
      5 N          63.4380   85.8954   12.7466 N.am    1  UNL1       -0.2636
      6 C          63.8996   87.0237   13.6205 C.2     1  UNL1        0.3077
      7 O          64.7630   86.7427   14.8145 O.2     1  UNL1       -0.2522
      8 N          63.4980   88.4330   13.3003 N.am    1  UNL1       -0.2681
      9 C          63.8396   84.4861   13.0668 C.3     1  UNL1        0.0989
     10 H          62.9313   88.6174   12.5166 H       1  UNL1        0.1564
     11 C          63.9597   89.5613   14.1742 C.ar    1  UNL1        0.0516
     12 C          63.3611   89.7477   15.5371 C.ar    1  UNL1        0.0156
     13 C          63.8228   90.8759   16.4110 C.ar    1  UNL1        0.0127
     14 C          64.8829   91.8179   15.9222 C.ar    1  UNL1        0.0578
     15 CL         65.3446   92.9462   16.7963 Cl      1  UNL1       -0.0822
     16 C          65.4814   91.6315   14.5595 C.ar    1  UNL1        0.0127
     17 C          65.0198   90.5032   13.6855 C.ar    1  UNL1        0.0156
     18 C          63.1939   81.9635   11.6707 C.ar    1  UNL1       -0.0211
     19 C          62.7543   80.8680   12.5961 C.ar    1  UNL1       -0.0042
     20 C          62.5703   79.4739   12.0740 C.ar    1  UNL1       -0.0003
     21 C          62.8259   79.1754   10.6264 C.ar    1  UNL1       -0.0000
     22 C          63.2656   80.2710    9.7009 C.ar    1  UNL1       -0.0003
     23 C          63.4496   81.6650   10.2231 C.ar    1  UNL1       -0.0042
     24 C          64.1774   82.5925   13.2056 C.3     1  UNL1        0.0230
     25 C          64.1381   82.9935   14.6505 C.3     1  UNL1        0.0726
     26 C          62.6871   84.3629   16.3146 C.3     1  UNL1        0.0897
     27 N          62.8213   83.2450   15.3235 N.3     1  UNL1       -0.2703
     28 C          61.6389   82.3787   15.0053 C.3     1  UNL1        0.0897
@<TRIPOS>BOND
     1    26    27    1
     2    27    28    1
     3    27    25    1
     4    25    24    1
     5    24     1    1
     6     1    18    1
     7    18    19   ar
     8    19    20   ar
     9    20    21   ar
    10    21    22   ar
    11    22    23   ar
    12     1     2    1
    13     2     3    1
    14     3     4    1
    15     4     5    1
    16     5     6   am
    17     6     7    2
    18     6     8   am
    19     8    11    1
    20    11    12   ar
    21    12    13   ar
    22    13    14   ar
    23    14    15    1
    24    14    16   ar
    25    16    17   ar
    26     5     9    1
    27     9     1    1
    28    23    18   ar
    29    17    11   ar
    30     8    10    1
