@<TRIPOS>MOLECULE
*****
 33 37 0 0 0
SMALL
GASTEIGER

@<TRIPOS>ATOM
      1 C          62.6122   89.5898   11.7372 C.3     1  UNL1        0.0983
      2 C          63.0404   89.2073   13.1229 C.3     1  UNL1        0.0280
      3 C          64.0500   90.0424   13.8533 C.3     1  UNL1        0.0452
      4 C          64.6313   91.2600   13.1979 C.ar    1  UNL1        0.0335
      5 C          65.6371   92.2690   13.6672 C.ar    1  UNL1       -0.0035
      6 C          65.8305   93.2750   12.5715 C.ar    1  UNL1        0.0133
      7 C          66.6992   94.4936   12.4697 C.ar    1  UNL1        0.0012
      8 C          66.6815   95.3250   11.2214 C.ar    1  UNL1        0.0001
      9 C          65.7952   94.9378   10.0748 C.ar    1  UNL1        0.0015
     10 C          64.9265   93.7192   10.1766 C.ar    1  UNL1        0.0172
     11 C          64.9442   92.8878   11.4250 C.ar    1  UNL1        0.0594
     12 N          64.2030   91.6425   11.8121 N.ar    1  UNL1       -0.3292
     13 C          63.1935   90.8074   11.0818 C.3     1  UNL1        0.1254
     14 C          60.1998   88.6483   11.5271 C.3     1  UNL1        0.1149
     15 N          61.6026   88.7546   11.0068 N.am    1  UNL1       -0.2772
     16 C          61.9961   88.0259    9.7561 C.2     1  UNL1        0.2286
     17 O          63.3989   88.1322    9.2358 O.2     1  UNL1       -0.2746
     18 C          60.9865   87.1907    9.0257 C.3     1  UNL1        0.0878
     19 C          60.1510   86.1153    8.3970 C.3     1  UNL1        0.0127
     20 C          59.0134   86.7747    7.6750 C.3     1  UNL1        0.0008
     21 C          59.1459   88.2576    7.8576 C.3     1  UNL1        0.0008
     22 C          60.3653   88.5148    8.6924 C.3     1  UNL1        0.0127
     23 C          61.8187   86.0414    9.5117 C.ar    1  UNL1       -0.0145
     24 C          62.7443   85.3333    8.5672 C.ar    1  UNL1       -0.0015
     25 C          63.5765   84.1839    9.0532 C.ar    1  UNL1        0.0293
     26 C          63.4832   83.7425   10.4838 C.ar    1  UNL1        0.1401
     27 F          64.3155   82.5931   10.9698 F       1  UNL1       -0.2042
     28 C          62.5577   84.4505   11.4283 C.ar    1  UNL1        0.0293
     29 C          61.7255   85.6000   10.9423 C.ar    1  UNL1       -0.0015
     30 C          66.3282   92.2715   14.9985 C.3     1  UNL1        0.0691
     31 C          67.8246   92.1923   15.0669 C.2     1  UNL1        0.0548
     32 O          68.6240   92.0064   13.8113 O.co2   1  UNL1       -0.5488
     33 O          68.5216   92.2990   16.3908 O.co2   1  UNL1       -0.5488
@<TRIPOS>UNITY_ATOM_ATTR
32 1
charge -1
@<TRIPOS>BOND
     1    14    15    1
     2    15    16   am
     3    16    17    2
     4    16    18    1
     5    18    23    1
     6    23    24   ar
     7    24    25   ar
     8    25    26   ar
     9    26    27    1
    10    26    28   ar
    11    28    29   ar
    12    18    19    1
    13    19    20    1
    14    20    21    1
    15    21    22    1
    16     1    15    1
    17     1     2    1
    18     2     3    1
    19     3     4    1
    20     4     5   ar
    21     5    30    1
    22    30    31    1
    23    31    32   ar
    24    31    33   ar
    25     5     6   ar
    26     6     7   ar
    27     7     8   ar
    28     8     9   ar
    29     9    10   ar
    30    10    11   ar
    31    11    12   ar
    32    12    13    1
    33    22    18    1
    34    13     1    1
    35    29    23   ar
    36    12     4   ar
    37    11     6   ar
@<TRIPOS>MOLECULE
*****
 33 37 0 0 0
SMALL
GASTEIGER

@<TRIPOS>ATOM
      1 C          62.6473   90.3812   10.8015 C.3     1  UNL1        0.0983
      2 C          63.3627   91.2393    9.8006 C.3     1  UNL1        0.0280
      3 C          64.4457   92.1738   10.2520 C.3     1  UNL1        0.0452
      4 C          64.8133   92.2502   11.7043 C.ar    1  UNL1        0.0335
      5 C          65.8309   93.0705   12.4403 C.ar    1  UNL1       -0.0035
      6 C          65.7443   92.7194   13.8961 C.ar    1  UNL1        0.0133
      7 C          66.5024   93.2101   15.0937 C.ar    1  UNL1        0.0012
      8 C          66.1895   92.6636   16.4550 C.ar    1  UNL1        0.0001
      9 C          65.1184   91.6263   16.6187 C.ar    1  UNL1        0.0015
     10 C          64.3603   91.1356   15.4211 C.ar    1  UNL1        0.0172
     11 C          64.6732   91.6821   14.0598 C.ar    1  UNL1        0.0594
     12 N          64.0978   91.3922   12.7052 N.ar    1  UNL1       -0.3292
     13 C          63.0148   90.4577   12.2538 C.3     1  UNL1        0.1254
     14 C          60.1444   89.6848   10.7714 C.3     1  UNL1        0.1149
     15 N          61.5642   89.4467   10.3502 N.am    1  UNL1       -0.2772
     16 C          61.9011   88.2740    9.4776 C.2     1  UNL1        0.2286
     17 O          63.3209   88.0359    9.0564 O.2     1  UNL1       -0.2746
     18 C          60.8180   87.3394    9.0262 C.3     1  UNL1        0.0878
     19 C          59.9012   86.1895    8.7310 C.3     1  UNL1        0.0127
     20 C          58.7660   86.7043    7.8965 C.3     1  UNL1        0.0008
     21 C          58.9812   88.1723    7.6760 C.3     1  UNL1        0.0008
     22 C          60.2495   88.5649    8.3743 C.3     1  UNL1        0.0127
     23 C          61.6130   86.3094    9.7725 C.ar    1  UNL1       -0.0145
     24 C          62.5443   85.3977    9.0297 C.ar    1  UNL1       -0.0015
     25 C          63.3393   84.3677    9.7760 C.ar    1  UNL1        0.0293
     26 C          63.2031   84.2493   11.2651 C.ar    1  UNL1        0.1401
     27 F          63.9981   83.2193   12.0114 F       1  UNL1       -0.2042
     28 C          62.2719   85.1610   12.0079 C.ar    1  UNL1        0.0293
     29 C          61.4768   86.1910   11.2616 C.ar    1  UNL1       -0.0015
     30 C          66.7701   94.0670   11.8280 C.3     1  UNL1        0.0691
     31 C          66.2374   95.3490   11.2597 C.2     1  UNL1        0.0548
     32 O          65.9556   96.5110   12.1654 O.co2   1  UNL1       -0.5488
     33 O          65.9865   95.4688    9.7857 O.co2   1  UNL1       -0.5488
@<TRIPOS>UNITY_ATOM_ATTR
32 1
charge -1
@<TRIPOS>BOND
     1    14    15    1
     2    15    16   am
     3    16    17    2
     4    16    18    1
     5    18    23    1
     6    23    24   ar
     7    24    25   ar
     8    25    26   ar
     9    26    27    1
    10    26    28   ar
    11    28    29   ar
    12    18    19    1
    13    19    20    1
    14    20    21    1
    15    21    22    1
    16     1    15    1
    17     1     2    1
    18     2     3    1
    19     3     4    1
    20     4     5   ar
    21     5    30    1
    22    30    31    1
    23    31    32   ar
    24    31    33   ar
    25     5     6   ar
    26     6     7   ar
    27     7     8   ar
    28     8     9   ar
    29     9    10   ar
    30    10    11   ar
    31    11    12   ar
    32    12    13    1
    33    22    18    1
    34    13     1    1
    35    29    23   ar
    36    12     4   ar
    37    11     6   ar
@<TRIPOS>MOLECULE
*****
 33 37 0 0 0
SMALL
GASTEIGER

@<TRIPOS>ATOM
      1 C          64.0528   90.0642   13.1376 C.3     1  UNL1        0.0983
      2 C          63.1960   90.4132   11.9569 C.3     1  UNL1        0.0280
      3 C          62.4823   89.3311   11.2022 C.3     1  UNL1        0.0452
      4 C          62.6255   87.9000   11.6281 C.ar    1  UNL1        0.0335
      5 C          62.0474   86.6278   11.0828 C.ar    1  UNL1       -0.0035
      6 C          62.5470   85.4925   11.9263 C.ar    1  UNL1        0.0133
      7 C          62.3090   84.0130   11.8610 C.ar    1  UNL1        0.0012
      8 C          62.9578   83.1041   12.8623 C.ar    1  UNL1        0.0001
      9 C          63.8447   83.6746   13.9291 C.ar    1  UNL1        0.0015
     10 C          64.0827   85.1541   13.9945 C.ar    1  UNL1        0.0172
     11 C          63.4339   86.0631   12.9931 C.ar    1  UNL1        0.0594
     12 N          63.4823   87.5510   12.8088 N.ar    1  UNL1       -0.3292
     13 C          64.1960   88.6331   13.5635 C.3     1  UNL1        0.1254
     14 C          64.1996   91.6600   15.1826 C.3     1  UNL1        0.1149
     15 N          64.7666   91.1464   13.8924 N.am    1  UNL1       -0.2772
     16 C          66.0472   91.7148   13.3567 C.2     1  UNL1        0.2286
     17 O          66.6141   91.2012   12.0665 O.2     1  UNL1       -0.2746
     18 C          66.7610   92.7970   14.1115 C.3     1  UNL1        0.0878
     19 C          67.3911   94.0584   14.6229 C.3     1  UNL1        0.0127
     20 C          68.0309   93.7539   15.9450 C.3     1  UNL1        0.0008
     21 C          67.7962   92.3043   16.2507 C.3     1  UNL1        0.0008
     22 C          67.0113   91.7128   15.1175 C.3     1  UNL1        0.0127
     23 C          66.3614   93.6548   12.9478 C.ar    1  UNL1       -0.0145
     24 C          66.5404   95.1425   13.0163 C.ar    1  UNL1       -0.0015
     25 C          66.1408   96.0004   11.8525 C.ar    1  UNL1        0.0293
     26 C          65.5622   95.3706   10.6202 C.ar    1  UNL1        0.1401
     27 F          65.1626   96.2285    9.4564 F       1  UNL1       -0.2042
     28 C          65.3832   93.8829   10.5517 C.ar    1  UNL1        0.0293
     29 C          65.7828   93.0250   11.7155 C.ar    1  UNL1       -0.0015
     30 C          61.1307   86.5113    9.9012 C.3     1  UNL1        0.0691
     31 C          61.6556   86.0001    8.5922 C.2     1  UNL1        0.0548
     32 O          63.0975   85.6070    8.4644 O.co2   1  UNL1       -0.5488
     33 O          60.7385   85.8822    7.4111 O.co2   1  UNL1       -0.5488
@<TRIPOS>UNITY_ATOM_ATTR
32 1
charge -1
@<TRIPOS>BOND
     1    14    15    1
     2    15    16   am
     3    16    17    2
     4    16    18    1
     5    18    23    1
     6    23    24   ar
     7    24    25   ar
     8    25    26   ar
     9    26    27    1
    10    26    28   ar
    11    28    29   ar
    12    18    19    1
    13    19    20    1
    14    20    21    1
    15    21    22    1
    16     1    15    1
    17     1     2    1
    18     2     3    1
    19     3     4    1
    20     4     5   ar
    21     5    30    1
    22    30    31    1
    23    31    32   ar
    24    31    33   ar
    25     5     6   ar
    26     6     7   ar
    27     7     8   ar
    28     8     9   ar
    29     9    10   ar
    30    10    11   ar
    31    11    12   ar
    32    12    13    1
    33    22    18    1
    34    13     1    1
    35    29    23   ar
    36    12     4   ar
    37    11     6   ar
@<TRIPOS>MOLECULE
*****
 33 37 0 0 0
SMALL
GASTEIGER

@<TRIPOS>ATOM
      1 C          64.3654   89.8484   13.6946 C.3     1  UNL1        0.0983
      2 C          64.5901   88.4706   14.2432 C.3     1  UNL1        0.0280
      3 C          63.9134   87.2914   13.6095 C.3     1  UNL1        0.0452
      4 C          63.0120   87.4901   12.4271 C.ar    1  UNL1        0.0335
      5 C          62.2149   86.5260   11.5994 C.ar    1  UNL1       -0.0035
      6 C          61.4975   87.3080   10.5392 C.ar    1  UNL1        0.0133
      7 C          60.5679   86.8891    9.4391 C.ar    1  UNL1        0.0012
      8 C          59.9921   87.9176    8.5115 C.ar    1  UNL1        0.0001
      9 C          60.3459   89.3650    8.6840 C.ar    1  UNL1        0.0015
     10 C          61.2755   89.7840    9.7841 C.ar    1  UNL1        0.0172
     11 C          61.8513   88.7555   10.7117 C.ar    1  UNL1        0.0594
     12 N          62.7873   88.8680   11.8785 N.ar    1  UNL1       -0.3292
     13 C          63.4640   90.0471   12.5122 C.3     1  UNL1        0.1254
     14 C          64.4736   91.6380   15.5750 C.3     1  UNL1        0.1149
     15 N          65.0421   91.0277   14.3283 N.am    1  UNL1       -0.2772
     16 C          66.2874   91.5964   13.7153 C.2     1  UNL1        0.2286
     17 O          66.8560   90.9861   12.4686 O.2     1  UNL1       -0.2746
     18 C          66.9641   92.7756   14.3491 C.3     1  UNL1        0.0878
     19 C          67.5381   94.1083   14.7293 C.3     1  UNL1        0.0127
     20 C          68.2427   93.9513   16.0441 C.3     1  UNL1        0.0008
     21 C          68.1043   92.5217   16.4765 C.3     1  UNL1        0.0008
     22 C          67.3140   91.7951   15.4289 C.3     1  UNL1        0.0127
     23 C          66.4728   93.5096   13.1368 C.ar    1  UNL1       -0.0145
     24 C          65.8455   92.7519   12.0042 C.ar    1  UNL1       -0.0015
     25 C          65.3542   93.4859   10.7919 C.ar    1  UNL1        0.0293
     26 C          65.4899   94.9777   10.7121 C.ar    1  UNL1        0.1401
     27 F          64.9985   95.7117    9.4997 F       1  UNL1       -0.2042
     28 C          66.1171   95.7354   11.8445 C.ar    1  UNL1        0.0293
     29 C          66.6085   95.0014   13.0569 C.ar    1  UNL1       -0.0015
     30 C          62.1470   85.0407   11.7971 C.3     1  UNL1        0.0691
     31 C          63.3582   84.1937   11.5405 C.2     1  UNL1        0.0548
     32 O          64.2661   83.8202   12.6746 O.co2   1  UNL1       -0.5488
     33 O          63.6615   83.7204   10.1498 O.co2   1  UNL1       -0.5488
@<TRIPOS>UNITY_ATOM_ATTR
32 1
charge -1
@<TRIPOS>BOND
     1    14    15    1
     2    15    16   am
     3    16    17    2
     4    16    18    1
     5    18    23    1
     6    23    24   ar
     7    24    25   ar
     8    25    26   ar
     9    26    27    1
    10    26    28   ar
    11    28    29   ar
    12    18    19    1
    13    19    20    1
    14    20    21    1
    15    21    22    1
    16     1    15    1
    17     1     2    1
    18     2     3    1
    19     3     4    1
    20     4     5   ar
    21     5    30    1
    22    30    31    1
    23    31    32   ar
    24    31    33   ar
    25     5     6   ar
    26     6     7   ar
    27     7     8   ar
    28     8     9   ar
    29     9    10   ar
    30    10    11   ar
    31    11    12   ar
    32    12    13    1
    33    22    18    1
    34    13     1    1
    35    29    23   ar
    36    12     4   ar
    37    11     6   ar
