@<TRIPOS>MOLECULE
*****
 34 37 0 0 0
SMALL
GASTEIGER

@<TRIPOS>ATOM
      1 N          60.7678   89.0020   11.1383 N.am    1  UNL1       -0.2533
      2 C          62.0257   89.6838   11.5883 C.2     1  UNL1        0.3092
      3 O          63.0015   90.2029   10.5741 O.2     1  UNL1       -0.2521
      4 N          62.3080   89.8467   13.0525 N.am    1  UNL1       -0.2680
      5 H          60.1274   88.6614   11.8040 H       1  UNL1        0.1578
      6 H          61.6676   89.5061   13.7182 H       1  UNL1        0.1564
      7 C          63.5660   90.5286   13.5024 C.ar    1  UNL1        0.0517
      8 C          64.2032   90.1437   14.8047 C.ar    1  UNL1        0.0163
      9 C          65.4612   90.8256   15.2546 C.ar    1  UNL1        0.0205
     10 C          66.0821   91.8924   14.4024 C.ar    1  UNL1        0.0859
     11 C          65.4450   92.2773   13.1001 C.ar    1  UNL1        0.0205
     12 C          64.1870   91.5954   12.6502 C.ar    1  UNL1        0.0163
     13 N          67.3401   92.5742   14.8523 N.ar    1  UNL1       -0.1952
     14 N          67.4664   93.5135   16.0151 N.ar    1  UNL1       -0.0388
     15 N          68.8971   93.9563   16.0999 N.ar    1  UNL1       -0.0227
     16 N          69.6549   93.2908   14.9896 N.ar    1  UNL1       -0.1123
     17 C          68.6926   92.4366   14.2185 C.ar    1  UNL1        0.1658
     18 C          69.0246   91.5929   13.0235 C.3     1  UNL1        0.0758
     19 N          60.8959   87.6755    8.8212 N.ar    1  UNL1       -0.2162
     20 N          60.4073   87.9285    7.4258 N.ar    1  UNL1       -0.1683
     21 C          59.6948   89.2485    7.4164 C.ar    1  UNL1        0.0810
     22 C          59.7431   89.8112    8.8059 C.ar    1  UNL1        0.0509
     23 C          60.4855   88.8391    9.6742 C.ar    1  UNL1        0.1380
     24 C          63.9554   82.8554   10.6670 C.3     1  UNL1        0.0310
     25 C          63.1905   84.0604   10.2055 C.ar    1  UNL1       -0.0218
     26 C          62.2697   84.7720   11.1519 C.ar    1  UNL1       -0.0027
     27 C          61.5049   85.9770   10.6905 C.ar    1  UNL1        0.0189
     28 C          61.6608   86.4705    9.2827 C.ar    1  UNL1        0.0842
     29 C          62.5816   85.7589    8.3362 C.ar    1  UNL1        0.0189
     30 C          63.3464   84.5539    8.7977 C.ar    1  UNL1       -0.0027
     31 C          59.0476   89.8925    6.2263 C.3     1  UNL1        0.0372
     32 C          57.7263   89.3069    6.6278 C.3     1  UNL1        0.0060
     33 C          60.3688   90.4782    5.8247 C.3     1  UNL1        0.0060
     34 C          58.4004   90.5366    5.0362 C.3     1  UNL1        0.0060
@<TRIPOS>BOND
     1    24    25    1
     2    25    26   ar
     3    26    27   ar
     4    27    28   ar
     5    28    19    1
     6    19    20   ar
     7    20    21   ar
     8    21    31    1
     9    31    32    1
    10    31    33    1
    11    31    34    1
    12    21    22   ar
    13    22    23   ar
    14    23     1    1
    15     1     2   am
    16     2     3    2
    17     2     4   am
    18     4     7    1
    19     7     8   ar
    20     8     9   ar
    21     9    10   ar
    22    10    13    1
    23    13    14   ar
    24    14    15   ar
    25    15    16   ar
    26    16    17   ar
    27    17    18    1
    28    10    11   ar
    29    11    12   ar
    30    28    29   ar
    31    29    30   ar
    32    30    25   ar
    33    23    19   ar
    34    12     7   ar
    35    17    13   ar
    36     1     5    1
    37     4     6    1
@<TRIPOS>MOLECULE
*****
 34 37 0 0 0
SMALL
GASTEIGER

@<TRIPOS>ATOM
      1 N          62.8588   86.5614   14.3594 N.am    1  UNL1       -0.2533
      2 C          63.5006   87.7011   13.6254 C.2     1  UNL1        0.3092
      3 O          63.9920   87.5073   12.2214 O.2     1  UNL1       -0.2521
      4 N          63.6511   89.0348   14.2951 N.am    1  UNL1       -0.2680
      5 H          62.5363   86.6886   15.2809 H       1  UNL1        0.1578
      6 H          63.3286   89.1621   15.2166 H       1  UNL1        0.1564
      7 C          64.2929   90.1746   13.5610 C.ar    1  UNL1        0.0517
      8 C          65.5024   90.8507   14.1355 C.ar    1  UNL1        0.0163
      9 C          66.1442   91.9904   13.4014 C.ar    1  UNL1        0.0205
     10 C          65.5766   92.4542   12.0927 C.ar    1  UNL1        0.0859
     11 C          64.3671   91.7782   11.5182 C.ar    1  UNL1        0.0205
     12 C          63.7253   90.6384   12.2523 C.ar    1  UNL1        0.0163
     13 N          66.2184   93.5940   11.3585 N.ar    1  UNL1       -0.1952
     14 N          65.9199   95.0505   11.5574 N.ar    1  UNL1       -0.0388
     15 N          66.7885   95.8340   10.6184 N.ar    1  UNL1       -0.0227
     16 N          67.6237   94.8618    9.8392 N.ar    1  UNL1       -0.1123
     17 C          67.2715   93.4773   10.2967 C.ar    1  UNL1        0.1658
     18 C          67.8675   92.2005    9.7826 C.3     1  UNL1        0.0758
     19 N          62.1696   84.9896   12.3101 N.ar    1  UNL1       -0.2162
     20 N          62.1985   83.5127   12.0498 N.ar    1  UNL1       -0.1683
     21 C          62.7549   82.8379   13.2684 C.ar    1  UNL1        0.0810
     22 C          63.0700   83.8979   14.2819 C.ar    1  UNL1        0.0509
     23 C          62.7083   85.2277   13.6897 C.ar    1  UNL1        0.1380
     24 C          60.2388   89.2051    8.5020 C.3     1  UNL1        0.0310
     25 C          60.7215   88.1512    9.4540 C.ar    1  UNL1       -0.0218
     26 C          60.2285   88.1376   10.8706 C.ar    1  UNL1       -0.0027
     27 C          60.7112   87.0837   11.8226 C.ar    1  UNL1        0.0189
     28 C          61.6869   86.0435   11.3581 C.ar    1  UNL1        0.0842
     29 C          62.1800   86.0571    9.9415 C.ar    1  UNL1        0.0189
     30 C          61.6973   87.1110    8.9895 C.ar    1  UNL1       -0.0027
     31 C          62.9602   81.3623   13.4428 C.3     1  UNL1        0.0372
     32 C          64.2890   81.4658   12.7546 C.3     1  UNL1        0.0060
     33 C          61.6315   81.2588   14.1311 C.3     1  UNL1        0.0060
     34 C          63.1655   79.8867   13.6173 C.3     1  UNL1        0.0060
@<TRIPOS>BOND
     1    24    25    1
     2    25    26   ar
     3    26    27   ar
     4    27    28   ar
     5    28    19    1
     6    19    20   ar
     7    20    21   ar
     8    21    31    1
     9    31    32    1
    10    31    33    1
    11    31    34    1
    12    21    22   ar
    13    22    23   ar
    14    23     1    1
    15     1     2   am
    16     2     3    2
    17     2     4   am
    18     4     7    1
    19     7     8   ar
    20     8     9   ar
    21     9    10   ar
    22    10    13    1
    23    13    14   ar
    24    14    15   ar
    25    15    16   ar
    26    16    17   ar
    27    17    18    1
    28    10    11   ar
    29    11    12   ar
    30    28    29   ar
    31    29    30   ar
    32    30    25   ar
    33    23    19   ar
    34    12     7   ar
    35    17    13   ar
    36     1     5    1
    37     4     6    1
@<TRIPOS>MOLECULE
*****
 34 37 0 0 0
SMALL
GASTEIGER

@<TRIPOS>ATOM
      1 N          60.1555   94.5106    0.7976 N.am    1  UNL1       -0.2533
      2 C          60.0563   93.3521    1.7451 C.2     1  UNL1        0.3092
      3 O          60.2888   91.9556    1.2493 O.2     1  UNL1       -0.2521
      4 N          59.7247   93.5899    3.1885 N.am    1  UNL1       -0.2680
      5 H          60.0030   95.4271    1.1230 H       1  UNL1        0.1578
      6 H          59.5721   94.5065    3.5140 H       1  UNL1        0.1564
      7 C          59.6255   92.4313    4.1360 C.ar    1  UNL1        0.0517
      8 C          60.8565   91.6589    4.5076 C.ar    1  UNL1        0.0163
      9 C          60.7573   90.5003    5.4552 C.ar    1  UNL1        0.0205
     10 C          59.4272   90.1141    6.0311 C.ar    1  UNL1        0.0859
     11 C          58.1963   90.8866    5.6595 C.ar    1  UNL1        0.0205
     12 C          58.2955   92.0451    4.7120 C.ar    1  UNL1        0.0163
     13 N          59.3281   88.9555    6.9786 N.ar    1  UNL1       -0.1952
     14 N          58.6947   87.6279    6.6848 N.ar    1  UNL1       -0.0388
     15 N          58.8200   86.7730    7.9109 N.ar    1  UNL1       -0.0227
     16 N          59.5309   87.5722    8.9625 N.ar    1  UNL1       -0.1123
     17 C          59.8449   88.9211    8.3864 C.ar    1  UNL1        0.1658
     18 C          60.5516   90.0392    9.0937 C.3     1  UNL1        0.0758
     19 N          59.5274   94.3530   -1.7958 N.ar    1  UNL1       -0.2162
     20 N          60.2839   94.0428   -3.0534 N.ar    1  UNL1       -0.1683
     21 C          61.7111   93.7708   -2.6807 C.ar    1  UNL1        0.0810
     22 C          61.8368   93.9129   -1.1927 C.ar    1  UNL1        0.0509
     23 C          60.4871   94.2728   -0.6459 C.ar    1  UNL1        0.1380
     24 C          53.6878   95.6817   -1.4297 C.3     1  UNL1        0.0310
     25 C          55.1477   95.3495   -1.5212 C.ar    1  UNL1       -0.0218
     26 C          55.5806   93.9371   -1.7811 C.ar    1  UNL1       -0.0027
     27 C          57.0405   93.6049   -1.8726 C.ar    1  UNL1        0.0189
     28 C          58.0675   94.6852   -1.7043 C.ar    1  UNL1        0.0842
     29 C          57.6345   96.0976   -1.4444 C.ar    1  UNL1        0.0189
     30 C          56.1746   96.4298   -1.3529 C.ar    1  UNL1       -0.0027
     31 C          62.8183   93.4185   -3.6293 C.3     1  UNL1        0.0372
     32 C          61.9761   93.8772   -4.7827 C.3     1  UNL1        0.0060
     33 C          63.6606   92.9598   -2.4760 C.3     1  UNL1        0.0060
     34 C          63.9255   93.0662   -4.5780 C.3     1  UNL1        0.0060
@<TRIPOS>BOND
     1    24    25    1
     2    25    26   ar
     3    26    27   ar
     4    27    28   ar
     5    28    19    1
     6    19    20   ar
     7    20    21   ar
     8    21    31    1
     9    31    32    1
    10    31    33    1
    11    31    34    1
    12    21    22   ar
    13    22    23   ar
    14    23     1    1
    15     1     2   am
    16     2     3    2
    17     2     4   am
    18     4     7    1
    19     7     8   ar
    20     8     9   ar
    21     9    10   ar
    22    10    13    1
    23    13    14   ar
    24    14    15   ar
    25    15    16   ar
    26    16    17   ar
    27    17    18    1
    28    10    11   ar
    29    11    12   ar
    30    28    29   ar
    31    29    30   ar
    32    30    25   ar
    33    23    19   ar
    34    12     7   ar
    35    17    13   ar
    36     1     5    1
    37     4     6    1
@<TRIPOS>MOLECULE
*****
 34 37 0 0 0
SMALL
GASTEIGER

@<TRIPOS>ATOM
      1 N          60.2725   94.6436    1.5762 N.am    1  UNL1       -0.2533
      2 C          60.3437   93.4912    2.5336 C.2     1  UNL1        0.3092
      3 O          61.5683   92.6258    2.5760 O.2     1  UNL1       -0.2521
      4 N          59.1904   93.2039    3.4488 N.am    1  UNL1       -0.2680
      5 H          59.4688   95.2115    1.5484 H       1  UNL1        0.1578
      6 H          58.3867   93.7718    3.4210 H       1  UNL1        0.1564
      7 C          59.2617   92.0515    4.4062 C.ar    1  UNL1        0.0517
      8 C          58.0032   91.4880    4.9966 C.ar    1  UNL1        0.0163
      9 C          58.0744   90.3355    5.9541 C.ar    1  UNL1        0.0205
     10 C          59.4042   89.7465    6.3212 C.ar    1  UNL1        0.0859
     11 C          60.6627   90.3100    5.7307 C.ar    1  UNL1        0.0205
     12 C          60.5914   91.4624    4.7733 C.ar    1  UNL1        0.0163
     13 N          59.4754   88.5940    7.2786 N.ar    1  UNL1       -0.1952
     14 N          59.0551   87.1828    6.9925 N.ar    1  UNL1       -0.0388
     15 N          59.2995   86.3670    8.2273 N.ar    1  UNL1       -0.0227
     16 N          59.8708   87.2740    9.2766 N.ar    1  UNL1       -0.1123
     17 C          59.9795   88.6504    8.6902 C.ar    1  UNL1        0.1658
     18 C          60.5008   89.8692    9.3922 C.3     1  UNL1        0.0758
     19 N          61.4918   94.6079   -0.8023 N.ar    1  UNL1       -0.2162
     20 N          62.8223   95.0689   -1.3190 N.ar    1  UNL1       -0.1683
     21 C          63.5787   95.6767   -0.1751 C.ar    1  UNL1        0.0810
     22 C          62.7156   95.5913    1.0487 C.ar    1  UNL1        0.0509
     23 C          61.4258   94.9308    0.6611 C.ar    1  UNL1        0.1380
     24 C          57.1890   91.9409   -4.0230 C.3     1  UNL1        0.0310
     25 C          58.2647   92.6076   -3.2178 C.ar    1  UNL1       -0.0218
     26 C          58.4237   92.2809   -1.7625 C.ar    1  UNL1       -0.0027
     27 C          59.4994   92.9477   -0.9573 C.ar    1  UNL1        0.0189
     28 C          60.4161   93.9412   -1.6074 C.ar    1  UNL1        0.0842
     29 C          60.2570   94.2679   -3.0627 C.ar    1  UNL1        0.0189
     30 C          59.1813   93.6011   -3.8679 C.ar    1  UNL1       -0.0027
     31 C          64.9563   96.2663   -0.2431 C.3     1  UNL1        0.0372
     32 C          64.9851   96.3713    1.2530 C.3     1  UNL1        0.0060
     33 C          64.9274   96.1613   -1.7391 C.3     1  UNL1        0.0060
     34 C          66.3338   96.8559   -0.3111 C.3     1  UNL1        0.0060
@<TRIPOS>BOND
     1    24    25    1
     2    25    26   ar
     3    26    27   ar
     4    27    28   ar
     5    28    19    1
     6    19    20   ar
     7    20    21   ar
     8    21    31    1
     9    31    32    1
    10    31    33    1
    11    31    34    1
    12    21    22   ar
    13    22    23   ar
    14    23     1    1
    15     1     2   am
    16     2     3    2
    17     2     4   am
    18     4     7    1
    19     7     8   ar
    20     8     9   ar
    21     9    10   ar
    22    10    13    1
    23    13    14   ar
    24    14    15   ar
    25    15    16   ar
    26    16    17   ar
    27    17    18    1
    28    10    11   ar
    29    11    12   ar
    30    28    29   ar
    31    29    30   ar
    32    30    25   ar
    33    23    19   ar
    34    12     7   ar
    35    17    13   ar
    36     1     5    1
    37     4     6    1
@<TRIPOS>MOLECULE
*****
 34 37 0 0 0
SMALL
GASTEIGER

@<TRIPOS>ATOM
      1 N          61.6677   87.9932   12.2027 N.am    1  UNL1       -0.2533
      2 C          62.8751   88.7359   12.6929 C.2     1  UNL1        0.3092
      3 O          64.2316   88.1011   12.6087 O.2     1  UNL1       -0.2521
      4 N          62.7263   90.1136   13.2674 N.am    1  UNL1       -0.2680
      5 H          60.7775   88.4099   12.2580 H       1  UNL1        0.1578
      6 H          61.8360   90.5303   13.3227 H       1  UNL1        0.1564
      7 C          63.9338   90.8563   13.7576 C.ar    1  UNL1        0.0517
      8 C          64.2719   90.8568   15.2190 C.ar    1  UNL1        0.0163
      9 C          65.4793   91.5995   15.7092 C.ar    1  UNL1        0.0205
     10 C          66.3488   92.3417   14.7381 C.ar    1  UNL1        0.0859
     11 C          66.0107   92.3412   13.2767 C.ar    1  UNL1        0.0205
     12 C          64.8032   91.5985   12.7865 C.ar    1  UNL1        0.0163
     13 N          67.5563   93.0845   15.2283 N.ar    1  UNL1       -0.1952
     14 N          67.5703   94.1370   16.2969 N.ar    1  UNL1       -0.0388
     15 N          68.9844   94.6081   16.4650 N.ar    1  UNL1       -0.0227
     16 N          69.8444   93.8467   15.5003 N.ar    1  UNL1       -0.1123
     17 C          68.9617   92.9050   14.7359 C.ar    1  UNL1        0.1658
     18 C          69.4065   91.9514   13.6670 C.3     1  UNL1        0.0758
     19 N          61.3743   86.1768   10.2638 N.ar    1  UNL1       -0.2162
     20 N          61.7183   84.7249   10.1097 N.ar    1  UNL1       -0.1683
     21 C          62.3732   84.2664   11.3789 C.ar    1  UNL1        0.0810
     22 C          62.4340   85.4349   12.3174 C.ar    1  UNL1        0.0509
     23 C          61.8166   86.6156   11.6282 C.ar    1  UNL1        0.1380
     24 C          58.6988   89.6237    6.1455 C.3     1  UNL1        0.0310
     25 C          59.3677   88.7620    7.1750 C.ar    1  UNL1       -0.0218
     26 C          59.2368   87.2694    7.1035 C.ar    1  UNL1       -0.0027
     27 C          59.9057   86.4077    8.1331 C.ar    1  UNL1        0.0189
     28 C          60.7054   87.0385    9.2342 C.ar    1  UNL1        0.0842
     29 C          60.8363   88.5310    9.3057 C.ar    1  UNL1        0.0189
     30 C          60.1675   89.3928    8.2761 C.ar    1  UNL1       -0.0027
     31 C          62.8786   82.8824   11.6601 C.3     1  UNL1        0.0372
     32 C          63.4180   82.7955   10.2632 C.3     1  UNL1        0.0060
     33 C          62.3392   82.9694   13.0571 C.3     1  UNL1        0.0060
     34 C          63.3840   81.4984   11.9414 C.3     1  UNL1        0.0060
@<TRIPOS>BOND
     1    24    25    1
     2    25    26   ar
     3    26    27   ar
     4    27    28   ar
     5    28    19    1
     6    19    20   ar
     7    20    21   ar
     8    21    31    1
     9    31    32    1
    10    31    33    1
    11    31    34    1
    12    21    22   ar
    13    22    23   ar
    14    23     1    1
    15     1     2   am
    16     2     3    2
    17     2     4   am
    18     4     7    1
    19     7     8   ar
    20     8     9   ar
    21     9    10   ar
    22    10    13    1
    23    13    14   ar
    24    14    15   ar
    25    15    16   ar
    26    16    17   ar
    27    17    18    1
    28    10    11   ar
    29    11    12   ar
    30    28    29   ar
    31    29    30   ar
    32    30    25   ar
    33    23    19   ar
    34    12     7   ar
    35    17    13   ar
    36     1     5    1
    37     4     6    1
@<TRIPOS>MOLECULE
*****
 34 37 0 0 0
SMALL
GASTEIGER

@<TRIPOS>ATOM
      1 N          62.0443   85.7026   11.9462 N.am    1  UNL1       -0.2533
      2 C          62.9202   86.7880   12.4981 C.2     1  UNL1        0.3092
      3 O          64.0637   86.4408   13.4047 O.2     1  UNL1       -0.2521
      4 N          62.6527   88.2207   12.1434 N.am    1  UNL1       -0.2680
      5 H          61.2938   85.9305   11.3512 H       1  UNL1        0.1578
      6 H          61.9022   88.4487   11.5484 H       1  UNL1        0.1564
      7 C          63.5286   89.3061   12.6953 C.ar    1  UNL1        0.0517
      8 C          63.7699   90.5534   11.8978 C.ar    1  UNL1        0.0163
      9 C          64.6458   91.6388   12.4497 C.ar    1  UNL1        0.0205
     10 C          65.2805   91.4770   13.7991 C.ar    1  UNL1        0.0859
     11 C          65.0392   90.2297   14.5967 C.ar    1  UNL1        0.0205
     12 C          64.1632   89.1443   14.0447 C.ar    1  UNL1        0.0163
     13 N          66.1564   92.5624   14.3510 N.ar    1  UNL1       -0.1952
     14 N          66.7445   92.6049   15.7303 N.ar    1  UNL1       -0.0388
     15 N          67.5496   93.8647   15.8523 N.ar    1  UNL1       -0.0227
     16 N          67.4591   94.6007   14.5485 N.ar    1  UNL1       -0.1123
     17 C          66.5980   93.7959   13.6206 C.ar    1  UNL1        0.1658
     18 C          66.2412   94.1605   12.2100 C.3     1  UNL1        0.0758
     19 N          62.5778   83.7373   13.6776 N.ar    1  UNL1       -0.2162
     20 N          62.7907   82.2565   13.5686 N.ar    1  UNL1       -0.1683
     21 C          62.6562   81.8739   12.1245 C.ar    1  UNL1        0.0810
     22 C          62.3603   83.1183   11.3409 C.ar    1  UNL1        0.0509
     23 C          62.3118   84.2699   12.3009 C.ar    1  UNL1        0.1380
     24 C          62.7587   86.9635   18.7332 C.3     1  UNL1        0.0310
     25 C          62.7135   86.1570   17.4693 C.ar    1  UNL1       -0.0218
     26 C          61.4031   85.9144   16.7809 C.ar    1  UNL1       -0.0027
     27 C          61.3579   85.1078   15.5170 C.ar    1  UNL1        0.0189
     28 C          62.6230   84.5438   14.9415 C.ar    1  UNL1        0.0842
     29 C          63.9334   84.7864   15.6300 C.ar    1  UNL1        0.0189
     30 C          63.9786   85.5930   16.8938 C.ar    1  UNL1       -0.0027
     31 C          62.7936   80.4899   11.5625 C.3     1  UNL1        0.0372
     32 C          62.4002   79.9120   12.8897 C.3     1  UNL1        0.0060
     33 C          63.1870   81.0678   10.2354 C.3     1  UNL1        0.0060
     34 C          62.9310   79.1060   11.0006 C.3     1  UNL1        0.0060
@<TRIPOS>BOND
     1    24    25    1
     2    25    26   ar
     3    26    27   ar
     4    27    28   ar
     5    28    19    1
     6    19    20   ar
     7    20    21   ar
     8    21    31    1
     9    31    32    1
    10    31    33    1
    11    31    34    1
    12    21    22   ar
    13    22    23   ar
    14    23     1    1
    15     1     2   am
    16     2     3    2
    17     2     4   am
    18     4     7    1
    19     7     8   ar
    20     8     9   ar
    21     9    10   ar
    22    10    13    1
    23    13    14   ar
    24    14    15   ar
    25    15    16   ar
    26    16    17   ar
    27    17    18    1
    28    10    11   ar
    29    11    12   ar
    30    28    29   ar
    31    29    30   ar
    32    30    25   ar
    33    23    19   ar
    34    12     7   ar
    35    17    13   ar
    36     1     5    1
    37     4     6    1
@<TRIPOS>MOLECULE
*****
 34 37 0 0 0
SMALL
GASTEIGER

@<TRIPOS>ATOM
      1 N          61.4690   85.6619   11.8386 N.am    1  UNL1       -0.2533
      2 C          62.3609   86.8653   11.9154 C.2     1  UNL1        0.3092
      3 O          63.8055   86.7058   12.2869 O.2     1  UNL1       -0.2521
      4 N          61.8086   88.2284   11.6207 N.am    1  UNL1       -0.2680
      5 H          60.5209   85.7667   11.5947 H       1  UNL1        0.1578
      6 H          60.8605   88.3332   11.3768 H       1  UNL1        0.1564
      7 C          62.7007   89.4319   11.6975 C.ar    1  UNL1        0.0517
      8 C          63.4011   89.7655   12.9812 C.ar    1  UNL1        0.0163
      9 C          64.2932   90.9690   13.0581 C.ar    1  UNL1        0.0205
     10 C          64.4849   91.8388   11.8512 C.ar    1  UNL1        0.0859
     11 C          63.7844   91.5051   10.5674 C.ar    1  UNL1        0.0205
     12 C          62.8924   90.3017   10.4906 C.ar    1  UNL1        0.0163
     13 N          65.3770   93.0422   11.9280 N.ar    1  UNL1       -0.1952
     14 N          65.6139   94.0357   10.8294 N.ar    1  UNL1       -0.0388
     15 N          66.5721   95.0709   11.3393 N.ar    1  UNL1       -0.0227
     16 N          66.9274   94.7173   12.7531 N.ar    1  UNL1       -0.1123
     17 C          66.1888   93.4635   13.1169 C.ar    1  UNL1        0.1658
     18 C          66.2510   92.7553   14.4377 C.3     1  UNL1        0.0758
     19 N          62.5791   83.8388   13.4475 N.ar    1  UNL1       -0.2162
     20 N          63.0154   82.4121   13.2919 N.ar    1  UNL1       -0.1683
     21 C          62.7272   81.9904   11.8815 C.ar    1  UNL1        0.0810
     22 C          62.1129   83.1565   11.1655 C.ar    1  UNL1        0.0509
     23 C          62.0213   84.2988   12.1333 C.ar    1  UNL1        0.1380
     24 C          62.9925   87.1278   18.4487 C.3     1  UNL1        0.0310
     25 C          62.8892   86.3055   17.1984 C.ar    1  UNL1       -0.0218
     26 C          64.0989   86.0952   16.3369 C.ar    1  UNL1       -0.0027
     27 C          63.9956   85.2730   15.0866 C.ar    1  UNL1        0.0189
     28 C          62.6825   84.6610   14.6978 C.ar    1  UNL1        0.0842
     29 C          61.4727   84.8713   15.5593 C.ar    1  UNL1        0.0189
     30 C          61.5761   85.6936   16.8096 C.ar    1  UNL1       -0.0027
     31 C          63.0047   80.6397   11.2910 C.3     1  UNL1        0.0372
     32 C          62.4913   79.9879   12.5405 C.3     1  UNL1        0.0060
     33 C          63.5182   81.2916   10.0414 C.3     1  UNL1        0.0060
     34 C          63.2822   79.2891   10.7004 C.3     1  UNL1        0.0060
@<TRIPOS>BOND
     1    24    25    1
     2    25    26   ar
     3    26    27   ar
     4    27    28   ar
     5    28    19    1
     6    19    20   ar
     7    20    21   ar
     8    21    31    1
     9    31    32    1
    10    31    33    1
    11    31    34    1
    12    21    22   ar
    13    22    23   ar
    14    23     1    1
    15     1     2   am
    16     2     3    2
    17     2     4   am
    18     4     7    1
    19     7     8   ar
    20     8     9   ar
    21     9    10   ar
    22    10    13    1
    23    13    14   ar
    24    14    15   ar
    25    15    16   ar
    26    16    17   ar
    27    17    18    1
    28    10    11   ar
    29    11    12   ar
    30    28    29   ar
    31    29    30   ar
    32    30    25   ar
    33    23    19   ar
    34    12     7   ar
    35    17    13   ar
    36     1     5    1
    37     4     6    1
