@<TRIPOS>MOLECULE
*****
 12 12 0 0 0
SMALL
GASTEIGER

@<TRIPOS>ATOM
      1 C          60.6435   86.5273    9.1316 C.1     1  UNL1       -0.0689
      2 C          61.5953   85.7228    9.9664 C.1     1  UNL1       -0.0614
      3 C          62.5471   84.9183   10.8011 C.ar    1  UNL1        0.0608
      4 C          63.4620   83.9249   10.1483 C.ar    1  UNL1        0.0114
      5 C          64.4138   83.1204   10.9830 C.ar    1  UNL1        0.0213
      6 C          64.4507   83.3092   12.4706 C.ar    1  UNL1        0.0989
      7 N          63.5358   84.3025   13.1234 N.ar    1  UNL1       -0.2417
      8 C          62.5840   85.1071   12.2887 C.ar    1  UNL1        0.1071
      9 N          58.4212   86.7097    7.7982 N.3     1  UNL1       -0.3102
     10 C          59.6917   87.3319    8.2969 C.3     1  UNL1        0.1432
     11 H          57.8989   87.3946    7.2517 H       1  UNL1        0.1198
     12 H          57.8569   86.4062    8.5918 H       1  UNL1        0.1198
@<TRIPOS>BOND
     1     9    10    1
     2    10     1    1
     3     1     2    3
     4     2     3    1
     5     3     4   ar
     6     4     5   ar
     7     5     6   ar
     8     6     7   ar
     9     7     8   ar
    10     8     3   ar
    11     9    11    1
    12     9    12    1
@<TRIPOS>MOLECULE
*****
 12 12 0 0 0
SMALL
GASTEIGER

@<TRIPOS>ATOM
      1 C          60.6570   86.4875    9.2289 C.1     1  UNL1       -0.0689
      2 C          61.6473   85.6376    9.9683 C.1     1  UNL1       -0.0614
      3 C          62.6376   84.7876   10.7077 C.ar    1  UNL1        0.0608
      4 C          62.6702   84.8064   12.2072 C.ar    1  UNL1        0.0114
      5 C          63.6605   83.9564   12.9467 C.ar    1  UNL1        0.0213
      6 C          64.6183   83.0876   12.1866 C.ar    1  UNL1        0.0989
      7 N          64.5858   83.0688   10.6871 N.ar    1  UNL1       -0.2417
      8 C          63.5954   83.9188    9.9477 C.ar    1  UNL1        0.1071
      9 N          58.4834   86.7017    7.8219 N.3     1  UNL1       -0.3102
     10 C          59.6666   87.3375    8.4894 C.3     1  UNL1        0.1432
     11 H          57.9200   87.4222    7.3703 H       1  UNL1        0.1198
     12 H          57.9193   86.2167    8.5197 H       1  UNL1        0.1198
@<TRIPOS>BOND
     1     9    10    1
     2    10     1    1
     3     1     2    3
     4     2     3    1
     5     3     4   ar
     6     4     5   ar
     7     5     6   ar
     8     6     7   ar
     9     7     8   ar
    10     8     3   ar
    11     9    11    1
    12     9    12    1
@<TRIPOS>MOLECULE
*****
 12 12 0 0 0
SMALL
GASTEIGER

@<TRIPOS>ATOM
      1 C          63.4228   84.1613    9.8680 C.1     1  UNL1       -0.0689
      2 C          62.5598   85.3390    9.5241 C.1     1  UNL1       -0.0614
      3 C          61.6968   86.5167    9.1803 C.ar    1  UNL1        0.0608
      4 C          60.5521   86.3541    8.2247 C.ar    1  UNL1        0.0114
      5 C          59.6891   87.5319    7.8808 C.ar    1  UNL1        0.0213
      6 C          59.9708   88.8721    8.4926 C.ar    1  UNL1        0.0989
      7 N          61.1154   89.0347    9.4482 N.ar    1  UNL1       -0.2417
      8 C          61.9784   87.8569    9.7921 C.ar    1  UNL1        0.1071
      9 N          65.0224   82.9494   11.5180 N.3     1  UNL1       -0.3102
     10 C          64.2857   82.9835   10.2118 C.3     1  UNL1        0.1432
     11 H          65.5556   82.0825   11.5851 H       1  UNL1        0.1198
     12 H          64.3538   82.9978   12.2868 H       1  UNL1        0.1198
@<TRIPOS>BOND
     1     9    10    1
     2    10     1    1
     3     1     2    3
     4     2     3    1
     5     3     4   ar
     6     4     5   ar
     7     5     6   ar
     8     6     7   ar
     9     7     8   ar
    10     8     3   ar
    11     9    11    1
    12     9    12    1
@<TRIPOS>MOLECULE
*****
 12 12 0 0 0
SMALL
GASTEIGER

@<TRIPOS>ATOM
      1 C          60.7743   87.3902    9.0107 C.1     1  UNL1       -0.0689
      2 C          61.6045   88.3380    9.8245 C.1     1  UNL1       -0.0614
      3 C          62.4348   89.2859   10.6383 C.ar    1  UNL1        0.0608
      4 C          62.8557   90.6030   10.0571 C.ar    1  UNL1        0.0114
      5 C          63.6860   91.5509   10.8708 C.ar    1  UNL1        0.0213
      6 C          64.0954   91.1816   12.2658 C.ar    1  UNL1        0.0989
      7 N          63.6744   89.8644   12.8470 N.ar    1  UNL1       -0.2417
      8 C          62.8442   88.9166   12.0332 C.ar    1  UNL1        0.1071
      9 N          58.5221   86.7857    7.8652 N.3     1  UNL1       -0.3102
     10 C          59.9440   86.4423    8.1970 C.3     1  UNL1        0.1432
     11 H          58.1115   86.0348    7.3104 H       1  UNL1        0.1198
     12 H          58.4978   87.6549    7.3319 H       1  UNL1        0.1198
@<TRIPOS>BOND
     1     9    10    1
     2    10     1    1
     3     1     2    3
     4     2     3    1
     5     3     4   ar
     6     4     5   ar
     7     5     6   ar
     8     6     7   ar
     9     7     8   ar
    10     8     3   ar
    11     9    11    1
    12     9    12    1
@<TRIPOS>MOLECULE
*****
 12 12 0 0 0
SMALL
GASTEIGER

@<TRIPOS>ATOM
      1 C          59.8940   88.3073   11.1243 C.1     1  UNL1       -0.0689
      2 C          60.4261   87.4156   10.0418 C.1     1  UNL1       -0.0614
      3 C          60.9582   86.5239    8.9593 C.ar    1  UNL1        0.0608
      4 C          62.3814   86.0528    9.0077 C.ar    1  UNL1        0.0114
      5 C          62.9135   85.1611    7.9252 C.ar    1  UNL1        0.0213
      6 C          62.0224   84.7406    6.7943 C.ar    1  UNL1        0.0989
      7 N          60.5991   85.2117    6.7459 N.ar    1  UNL1       -0.2417
      8 C          60.0671   86.1034    7.8284 C.ar    1  UNL1        0.1071
      9 N          58.4177   88.6494   13.2346 N.3     1  UNL1       -0.3102
     10 C          59.3619   89.1990   12.2068 C.3     1  UNL1        0.1432
     11 H          58.1593   89.3884   13.8885 H       1  UNL1        0.1198
     12 H          58.8719   87.8900   13.7420 H       1  UNL1        0.1198
@<TRIPOS>BOND
     1     9    10    1
     2    10     1    1
     3     1     2    3
     4     2     3    1
     5     3     4   ar
     6     4     5   ar
     7     5     6   ar
     8     6     7   ar
     9     7     8   ar
    10     8     3   ar
    11     9    11    1
    12     9    12    1
@<TRIPOS>MOLECULE
*****
 12 12 0 0 0
SMALL
GASTEIGER

@<TRIPOS>ATOM
      1 C          62.7183   85.2816   16.4953 C.1     1  UNL1       -0.0689
      2 C          62.7828   84.1841   15.4749 C.1     1  UNL1       -0.0614
      3 C          62.8473   83.0865   14.4545 C.ar    1  UNL1        0.0608
      4 C          61.8256   81.9884   14.4685 C.ar    1  UNL1        0.0114
      5 C          61.8901   80.8909   13.4481 C.ar    1  UNL1        0.0213
      6 C          62.9763   80.8915   12.4137 C.ar    1  UNL1        0.0989
      7 N          63.9980   81.9896   12.3996 N.ar    1  UNL1       -0.2417
      8 C          63.9335   83.0871   13.4201 C.ar    1  UNL1        0.1071
      9 N          62.8489   87.8059   17.0960 N.3     1  UNL1       -0.3102
     10 C          62.6538   86.3791   17.5158 C.3     1  UNL1        0.1432
     11 H          62.7732   88.4137   17.9117 H       1  UNL1        0.1198
     12 H          62.1340   88.0607   16.4146 H       1  UNL1        0.1198
@<TRIPOS>BOND
     1     9    10    1
     2    10     1    1
     3     1     2    3
     4     2     3    1
     5     3     4   ar
     6     4     5   ar
     7     5     6   ar
     8     6     7   ar
     9     7     8   ar
    10     8     3   ar
    11     9    11    1
    12     9    12    1
@<TRIPOS>MOLECULE
*****
 12 12 0 0 0
SMALL
GASTEIGER

@<TRIPOS>ATOM
      1 C          62.9228   84.2210   11.3294 C.1     1  UNL1       -0.0689
      2 C          62.2589   85.3989   10.6800 C.1     1  UNL1       -0.0614
      3 C          61.5950   86.5768   10.0305 C.ar    1  UNL1        0.0608
      4 C          62.0073   87.9699   10.4034 C.ar    1  UNL1        0.0114
      5 C          61.3434   89.1478    9.7540 C.ar    1  UNL1        0.0213
      6 C          60.2672   88.9326    8.7316 C.ar    1  UNL1        0.0989
      7 N          59.8548   87.5395    8.3587 N.ar    1  UNL1       -0.2417
      8 C          60.5187   86.3616    9.0081 C.ar    1  UNL1        0.1071
      9 N          65.0056   82.6985   11.6357 N.3     1  UNL1       -0.3102
     10 C          63.5867   83.0431   11.9789 C.3     1  UNL1        0.1432
     11 H          65.2935   81.8760   12.1657 H       1  UNL1        0.1198
     12 H          65.6126   83.4839   11.8705 H       1  UNL1        0.1198
@<TRIPOS>BOND
     1     9    10    1
     2    10     1    1
     3     1     2    3
     4     2     3    1
     5     3     4   ar
     6     4     5   ar
     7     5     6   ar
     8     6     7   ar
     9     7     8   ar
    10     8     3   ar
    11     9    11    1
    12     9    12    1
@<TRIPOS>MOLECULE
*****
 12 12 0 0 0
SMALL
GASTEIGER

@<TRIPOS>ATOM
      1 C          63.1343   84.9819   15.6598 C.1     1  UNL1       -0.0689
      2 C          63.2299   84.1163   14.4385 C.1     1  UNL1       -0.0614
      3 C          63.3256   83.2507   13.2172 C.ar    1  UNL1        0.0608
      4 C          64.0844   83.7304   12.0156 C.ar    1  UNL1        0.0114
      5 C          64.1800   82.8648   10.7943 C.ar    1  UNL1        0.0213
      6 C          63.5168   81.5195   10.7746 C.ar    1  UNL1        0.0989
      7 N          62.7580   81.0399   11.9763 N.ar    1  UNL1       -0.2417
      8 C          62.6623   81.9055   13.1976 C.ar    1  UNL1        0.1071
      9 N          61.7033   86.3563   17.3371 N.3     1  UNL1       -0.3102
     10 C          63.0386   85.8475   16.8812 C.3     1  UNL1        0.1432
     11 H          61.8241   86.9241   18.1758 H       1  UNL1        0.1198
     12 H          61.0920   85.5670   17.5460 H       1  UNL1        0.1198
@<TRIPOS>BOND
     1     9    10    1
     2    10     1    1
     3     1     2    3
     4     2     3    1
     5     3     4   ar
     6     4     5   ar
     7     5     6   ar
     8     6     7   ar
     9     7     8   ar
    10     8     3   ar
    11     9    11    1
    12     9    12    1
@<TRIPOS>MOLECULE
*****
 12 12 0 0 0
SMALL
GASTEIGER

@<TRIPOS>ATOM
      1 C          62.1705   89.8546   10.2168 C.1     1  UNL1       -0.0689
      2 C          63.1942   90.7265   10.8814 C.1     1  UNL1       -0.0614
      3 C          64.2179   91.5985   11.5461 C.ar    1  UNL1        0.0608
      4 C          65.0534   92.5345   10.7240 C.ar    1  UNL1        0.0114
      5 C          66.0770   93.4064   11.3886 C.ar    1  UNL1        0.0213
      6 C          66.2652   93.3424   12.8754 C.ar    1  UNL1        0.0989
      7 N          65.4297   92.4065   13.6975 N.ar    1  UNL1       -0.2417
      8 C          64.4061   91.5345   13.0328 C.ar    1  UNL1        0.1071
      9 N          60.2141   89.5651    8.5320 N.3     1  UNL1       -0.3102
     10 C          61.1468   88.9826    9.5521 C.3     1  UNL1        0.1432
     11 H          59.5901   88.8360    8.1863 H       1  UNL1        0.1198
     12 H          60.7546   89.9462    7.7555 H       1  UNL1        0.1198
@<TRIPOS>BOND
     1     9    10    1
     2    10     1    1
     3     1     2    3
     4     2     3    1
     5     3     4   ar
     6     4     5   ar
     7     5     6   ar
     8     6     7   ar
     9     7     8   ar
    10     8     3   ar
    11     9    11    1
    12     9    12    1
