@<TRIPOS>MOLECULE
*****
 47 53 0 0 0
SMALL
GASTEIGER

@<TRIPOS>ATOM
      1 C          62.6751   94.4314    0.2291 C.3     1  UNL1        0.1543
      2 O          59.7755   94.3195    0.9904 O.2     1  UNL1       -0.2526
      3 C          60.7827   93.5095    1.7518 C.2     1  UNL1        0.3043
      4 N          62.2325   93.5655    1.3711 N.am    1  UNL1       -0.2822
      5 N          60.3400   92.6436    2.8938 N.am    1  UNL1       -0.2639
      6 C          58.8902   92.5876    3.2745 C.3     1  UNL1        0.0999
      7 C          58.4476   91.7216    4.4166 C.3     1  UNL1        0.0822
      8 C          59.4547   90.9117    5.1779 C.3     1  UNL1        0.2675
      9 C          60.9045   90.9677    4.7972 C.3     1  UNL1        0.0822
     10 C          61.3472   91.8336    3.6552 C.3     1  UNL1        0.0999
     11 N          60.3421   90.0506    6.0270 N.2     1  UNL1       -0.0623
     12 C          59.4828   89.3616    7.0452 C.2     1  UNL1        0.3222
     13 N          58.0642   89.7969    6.8254 N.am    1  UNL1       -0.1665
     14 C          58.0469   90.7549    5.6714 C.2     1  UNL1        0.3549
     15 O          56.8346   91.4365    5.1095 O.2     1  UNL1       -0.2423
     16 H          62.8935   93.0339    1.8708 H       1  UNL1        0.1514
     17 H          57.2820   89.5050    7.3471 H       1  UNL1        0.3014
     18 C          59.9585   88.4052    8.0983 C.ar    1  UNL1        0.0821
     19 C          60.2204   88.8938    9.4921 C.ar    1  UNL1        0.0074
     20 C          60.6961   87.9375   10.5453 C.ar    1  UNL1        0.0002
     21 C          60.9099   86.4924   10.2046 C.ar    1  UNL1        0.0000
     22 C          60.6480   86.0037    8.8108 C.ar    1  UNL1        0.0002
     23 C          60.1723   86.9601    7.7577 C.ar    1  UNL1        0.0074
     24 C          61.7572   95.4878   -0.3108 C.2     1  UNL1        0.2439
     25 O          61.7442   96.8558    0.3043 O.2     1  UNL1       -0.2731
     26 N          60.8521   95.1761   -1.4657 N.am    1  UNL1       -0.2781
     27 C          59.9342   96.2325   -2.0056 C.3     1  UNL1        0.0948
     28 C          59.0292   95.9209   -3.1605 C.3     1  UNL1        0.0375
     29 C          59.0421   94.5528   -3.7756 C.3     1  UNL1        0.0609
     30 C          59.9601   93.4964   -3.2357 C.3     1  UNL1        0.0375
     31 C          60.8651   93.8081   -2.0808 C.3     1  UNL1        0.0948
     32 N          58.1371   94.2412   -4.9305 N.3     1  UNL1       -0.2738
     33 C          58.7101   94.0606   -6.3049 C.3     1  UNL1        0.0720
     34 C          57.8051   93.7490   -7.4598 C.3     1  UNL1        0.0174
     35 C          56.3270   93.6179   -7.2403 C.3     1  UNL1        0.0029
     36 C          55.7540   93.7984   -5.8658 C.3     1  UNL1        0.0174
     37 C          56.6591   94.1101   -4.7109 C.3     1  UNL1        0.0720
     38 C          64.0356   94.2410   -0.3731 C.3     1  UNL1        0.0559
     39 C          64.3757   94.8947   -1.6796 C.ar    1  UNL1       -0.0131
     40 C          64.8370   96.3101   -1.8636 C.ar    1  UNL1        0.0312
     41 S          65.0606   96.5380   -3.3293 S.2     1  UNL1       -0.0868
     42 C          64.7374   95.2633   -4.0511 C.ar    1  UNL1        0.0292
     43 C          64.7739   94.8962   -5.5051 C.ar    1  UNL1        0.0065
     44 C          64.3872   93.5136   -5.9394 C.ar    1  UNL1        0.0005
     45 C          63.9639   92.4980   -4.9199 C.ar    1  UNL1        0.0000
     46 C          63.9274   92.8651   -3.4660 C.ar    1  UNL1        0.0002
     47 C          64.3142   94.2478   -3.0315 C.ar    1  UNL1        0.0026
@<TRIPOS>BOND
     1     2     3    2
     2     3     4   am
     3     4     1    1
     4     1    38    1
     5    38    39    1
     6    39    40   ar
     7    40    41   ar
     8    41    42   ar
     9    42    43   ar
    10    43    44   ar
    11    44    45   ar
    12    45    46   ar
    13    46    47   ar
    14     1    24    1
    15    24    25    2
    16    24    26   am
    17    26    27    1
    18    27    28    1
    19    28    29    1
    20    29    32    1
    21    32    33    1
    22    33    34    1
    23    34    35    1
    24    35    36    1
    25    36    37    1
    26    29    30    1
    27    30    31    1
    28     3     5   am
    29     5     6    1
    30     6     7    1
    31     7     8    1
    32     8     9    1
    33     9    10    1
    34     8    11    1
    35    11    12    2
    36    12    18    1
    37    18    19   ar
    38    19    20   ar
    39    20    21   ar
    40    21    22   ar
    41    22    23   ar
    42    12    13    1
    43    13    14   am
    44    14    15    2
    45    47    39   ar
    46    31    26    1
    47    10     5    1
    48    23    18   ar
    49    47    42   ar
    50    37    32    1
    51    14     8    1
    52     4    16    1
    53    13    17    1
@<TRIPOS>MOLECULE
*****
 47 53 0 0 0
SMALL
GASTEIGER

@<TRIPOS>ATOM
      1 C          59.6764   88.4002    7.6240 C.3     1  UNL1        0.1543
      2 O          58.9964   88.1857   10.5381 O.2     1  UNL1       -0.2526
      3 C          60.3058   88.7832   10.1155 C.2     1  UNL1        0.3043
      4 N          60.6459   88.8904    8.6585 N.am    1  UNL1       -0.2822
      5 N          61.2752   89.2734   11.1499 N.am    1  UNL1       -0.2639
      6 C          60.9352   89.1662   12.6069 C.3     1  UNL1        0.0999
      7 C          61.9046   89.6564   13.6414 C.3     1  UNL1        0.0822
      8 C          63.2139   90.2539   13.2188 C.3     1  UNL1        0.2675
      9 C          63.5539   90.3611   11.7617 C.3     1  UNL1        0.0822
     10 C          62.5846   89.8709   10.7273 C.3     1  UNL1        0.0999
     11 N          64.5541   90.8712   12.9488 N.2     1  UNL1       -0.0623
     12 C          65.1817   91.2117   14.2680 C.2     1  UNL1        0.3222
     13 N          64.2294   90.8048   15.3532 N.am    1  UNL1       -0.1665
     14 C          63.0133   90.2129   14.7047 C.2     1  UNL1        0.3549
     15 O          61.8081   89.6744   15.4172 O.2     1  UNL1       -0.2423
     16 H          61.5052   89.2826    8.3811 H       1  UNL1        0.1514
     17 H          64.3768   90.9081   16.3211 H       1  UNL1        0.3014
     18 C          66.5257   91.8474   14.4670 C.ar    1  UNL1        0.0821
     19 C          66.7756   92.7134   15.6660 C.ar    1  UNL1        0.0074
     20 C          68.1196   93.3492   15.8650 C.ar    1  UNL1        0.0002
     21 C          69.2137   93.1189   14.8650 C.ar    1  UNL1        0.0000
     22 C          68.9637   92.2530   13.6659 C.ar    1  UNL1        0.0002
     23 C          67.6197   91.6172   13.4669 C.ar    1  UNL1        0.0074
     24 C          58.8113   89.3770    6.8843 C.2     1  UNL1        0.2439
     25 O          57.3429   89.4528    7.1809 O.2     1  UNL1       -0.2731
     26 N          59.4145   90.2782    5.8480 N.am    1  UNL1       -0.2781
     27 C          58.5494   91.2551    5.1083 C.3     1  UNL1        0.0948
     28 C          59.1526   92.1563    4.0719 C.3     1  UNL1        0.0375
     29 C          60.6210   92.0806    3.7753 C.3     1  UNL1        0.0609
     30 C          61.4862   91.1037    4.5150 C.3     1  UNL1        0.0375
     31 C          60.8829   90.2025    5.5514 C.3     1  UNL1        0.0948
     32 N          61.2243   92.9818    2.7390 N.3     1  UNL1       -0.2738
     33 C          60.4309   94.1306    2.1906 C.3     1  UNL1        0.0720
     34 C          61.0341   95.0317    1.1543 C.3     1  UNL1        0.0174
     35 C          62.4308   94.7841    0.6663 C.3     1  UNL1        0.0029
     36 C          63.2242   93.6353    1.2147 C.3     1  UNL1        0.0174
     37 C          62.6209   92.7341    2.2511 C.3     1  UNL1        0.0720
     38 C          59.5723   86.9331    7.3294 C.3     1  UNL1        0.0559
     39 C          60.7829   86.0560    7.4510 C.ar    1  UNL1       -0.0131
     40 C          61.5337   85.4270    6.3149 C.ar    1  UNL1        0.0312
     41 S          62.6702   84.6360    6.8919 S.2     1  UNL1       -0.0868
     42 C          62.6217   84.7761    8.3846 C.ar    1  UNL1        0.0292
     43 C          63.4890   84.2180    9.4738 C.ar    1  UNL1        0.0065
     44 C          63.1899   84.5374   10.9085 C.ar    1  UNL1        0.0005
     45 C          62.0234   85.4150   11.2541 C.ar    1  UNL1        0.0000
     46 C          61.1562   85.9731   10.1649 C.ar    1  UNL1        0.0002
     47 C          61.4553   85.6537    8.7301 C.ar    1  UNL1        0.0026
@<TRIPOS>BOND
     1     2     3    2
     2     3     4   am
     3     4     1    1
     4     1    38    1
     5    38    39    1
     6    39    40   ar
     7    40    41   ar
     8    41    42   ar
     9    42    43   ar
    10    43    44   ar
    11    44    45   ar
    12    45    46   ar
    13    46    47   ar
    14     1    24    1
    15    24    25    2
    16    24    26   am
    17    26    27    1
    18    27    28    1
    19    28    29    1
    20    29    32    1
    21    32    33    1
    22    33    34    1
    23    34    35    1
    24    35    36    1
    25    36    37    1
    26    29    30    1
    27    30    31    1
    28     3     5   am
    29     5     6    1
    30     6     7    1
    31     7     8    1
    32     8     9    1
    33     9    10    1
    34     8    11    1
    35    11    12    2
    36    12    18    1
    37    18    19   ar
    38    19    20   ar
    39    20    21   ar
    40    21    22   ar
    41    22    23   ar
    42    12    13    1
    43    13    14   am
    44    14    15    2
    45    47    39   ar
    46    31    26    1
    47    10     5    1
    48    23    18   ar
    49    47    42   ar
    50    37    32    1
    51    14     8    1
    52     4    16    1
    53    13    17    1
@<TRIPOS>MOLECULE
*****
 47 53 0 0 0
SMALL
GASTEIGER

@<TRIPOS>ATOM
      1 C          61.5363   94.3489    0.3561 C.3     1  UNL1        0.1543
      2 O          58.7455   93.8059    1.3135 O.2     1  UNL1       -0.2526
      3 C          59.9148   93.1876    2.0211 C.2     1  UNL1        0.3043
      4 N          61.3102   93.4592    1.5424 N.am    1  UNL1       -0.2822
      5 N          59.6886   92.2979    3.2074 N.am    1  UNL1       -0.2639
      6 C          58.2933   92.0264    3.6861 C.3     1  UNL1        0.0999
      7 C          58.0672   91.1366    4.8724 C.3     1  UNL1        0.0822
      8 C          59.2364   90.5184    5.5799 C.3     1  UNL1        0.2675
      9 C          60.6318   90.7899    5.1012 C.3     1  UNL1        0.0822
     10 C          60.8579   91.6797    3.9150 C.3     1  UNL1        0.0999
     11 N          60.3014   89.8335    6.3841 N.2     1  UNL1       -0.0623
     12 C          59.6288   89.0492    7.4714 C.2     1  UNL1        0.3222
     13 N          58.1480   89.2493    7.3393 N.am    1  UNL1       -0.1665
     14 C          57.9056   90.1573    6.1703 C.2     1  UNL1        0.3549
     15 O          56.5672   90.6226    5.6781 O.2     1  UNL1       -0.2423
     16 H          62.0776   93.0534    2.0068 H       1  UNL1        0.1514
     17 H          57.4567   88.8541    7.9182 H       1  UNL1        0.3014
     18 C          60.3162   88.2117    8.5088 C.ar    1  UNL1        0.0821
     19 C          60.6031   86.7650    8.2353 C.ar    1  UNL1        0.0074
     20 C          61.2905   85.9275    9.2726 C.ar    1  UNL1        0.0002
     21 C          61.6910   86.5367   10.5836 C.ar    1  UNL1        0.0000
     22 C          61.4041   87.9834   10.8571 C.ar    1  UNL1        0.0002
     23 C          60.7167   88.8209    9.8197 C.ar    1  UNL1        0.0074
     24 C          60.6983   95.5792    0.1708 C.2     1  UNL1        0.2439
     25 O          60.9380   96.7861    1.0285 O.2     1  UNL1       -0.2731
     26 N          59.6206   95.6024   -0.8723 N.am    1  UNL1       -0.2781
     27 C          58.7826   96.8326   -1.0576 C.3     1  UNL1        0.0948
     28 C          57.7049   96.8559   -2.1007 C.3     1  UNL1        0.0375
     29 C          57.4652   95.6489   -2.9585 C.3     1  UNL1        0.0609
     30 C          58.3031   94.4187   -2.7732 C.3     1  UNL1        0.0375
     31 C          59.3809   94.3954   -1.7301 C.3     1  UNL1        0.0948
     32 N          56.3875   95.6722   -4.0015 N.3     1  UNL1       -0.2738
     33 C          55.1204   96.4358   -3.7539 C.3     1  UNL1        0.0720
     34 C          54.0427   96.4590   -4.7969 C.3     1  UNL1        0.0174
     35 C          54.2321   95.7187   -6.0877 C.3     1  UNL1        0.0029
     36 C          55.4992   94.9551   -6.3354 C.3     1  UNL1        0.0174
     37 C          56.5769   94.9318   -5.2923 C.3     1  UNL1        0.0720
     38 C          62.6003   94.0085   -0.6448 C.3     1  UNL1        0.0559
     39 C          63.7675   94.9299   -0.8413 C.ar    1  UNL1       -0.0131
     40 C          64.5491   95.6069    0.2453 C.ar    1  UNL1        0.0312
     41 S          65.6226   96.4316   -0.4009 S.2     1  UNL1       -0.0868
     42 C          65.5044   96.2642   -1.8868 C.ar    1  UNL1        0.0292
     43 C          66.2928   96.8370   -3.0273 C.ar    1  UNL1        0.0065
     44 C          65.9345   96.4818   -4.4398 C.ar    1  UNL1        0.0005
     45 C          64.7879   95.5537   -4.7121 C.ar    1  UNL1        0.0000
     46 C          63.9997   94.9809   -3.5717 C.ar    1  UNL1        0.0002
     47 C          64.3579   95.3362   -2.1590 C.ar    1  UNL1        0.0026
@<TRIPOS>BOND
     1     2     3    2
     2     3     4   am
     3     4     1    1
     4     1    38    1
     5    38    39    1
     6    39    40   ar
     7    40    41   ar
     8    41    42   ar
     9    42    43   ar
    10    43    44   ar
    11    44    45   ar
    12    45    46   ar
    13    46    47   ar
    14     1    24    1
    15    24    25    2
    16    24    26   am
    17    26    27    1
    18    27    28    1
    19    28    29    1
    20    29    32    1
    21    32    33    1
    22    33    34    1
    23    34    35    1
    24    35    36    1
    25    36    37    1
    26    29    30    1
    27    30    31    1
    28     3     5   am
    29     5     6    1
    30     6     7    1
    31     7     8    1
    32     8     9    1
    33     9    10    1
    34     8    11    1
    35    11    12    2
    36    12    18    1
    37    18    19   ar
    38    19    20   ar
    39    20    21   ar
    40    21    22   ar
    41    22    23   ar
    42    12    13    1
    43    13    14   am
    44    14    15    2
    45    47    39   ar
    46    31    26    1
    47    10     5    1
    48    23    18   ar
    49    47    42   ar
    50    37    32    1
    51    14     8    1
    52     4    16    1
    53    13    17    1
