@<TRIPOS>MOLECULE
*****
 23 25 0 0 0
SMALL
GASTEIGER

@<TRIPOS>ATOM
      1 C          61.5587   86.5966    8.8843 C.ar    1  UNL1       -0.0001
      2 C          60.1543   86.3169    8.4378 C.ar    1  UNL1        0.0963
      3 N          59.2964   87.4749    8.8539 N.ar    1  UNL1       -0.2273
      4 C          60.1706   88.4702    9.5576 C.ar    1  UNL1        0.1402
      5 N          59.8741   89.8006   10.1837 N.ar    1  UNL1       -0.3374
      6 C          60.9758   90.5882   10.8285 C.ar    1  UNL1        0.0734
      7 C          62.3740   90.0454   10.8473 C.ar    1  UNL1        0.0171
      8 C          62.6705   88.7149   10.2212 C.ar    1  UNL1        0.0042
      9 C          61.5688   87.9273    9.5764 C.ar    1  UNL1        0.0315
     10 H          58.9564   90.1569   10.1713 H       1  UNL1        0.1674
     11 C          63.4758   90.8330   11.4922 C.ar    1  UNL1        0.0016
     12 C          63.8743   90.5438   12.9090 C.ar    1  UNL1        0.0001
     13 C          64.9761   91.3315   13.5539 C.ar    1  UNL1        0.0001
     14 C          65.6792   92.4084   12.7819 C.ar    1  UNL1        0.0045
     15 C          65.2806   92.6976   11.3650 C.ar    1  UNL1        0.0536
     16 C          64.1789   91.9099   10.7202 C.ar    1  UNL1        0.0046
     17 C          65.9837   93.7744   10.5930 C.2     1  UNL1        0.2491
     18 O          65.3945   95.1519   10.5205 O.2     1  UNL1       -0.2699
     19 N          67.2761   93.4737    9.8934 N.am    1  UNL1       -0.2726
     20 C          67.9792   94.5506    9.1214 C.3     1  UNL1        0.1152
     21 C          67.8653   92.0962    9.9659 C.3     1  UNL1        0.1152
     22 C          62.8162   84.8221    7.4629 C.3     1  UNL1        0.0051
     23 C          62.7449   85.7025    8.6754 C.3     1  UNL1        0.0280
@<TRIPOS>BOND
     1    22    23    1
     2    23     1    1
     3     1     2   ar
     4     2     3   ar
     5     3     4   ar
     6     4     5   ar
     7     5     6   ar
     8     6     7   ar
     9     7    11    1
    10    11    12   ar
    11    12    13   ar
    12    13    14   ar
    13    14    15   ar
    14    15    17    1
    15    17    18    2
    16    17    19   am
    17    19    20    1
    18    19    21    1
    19    15    16   ar
    20     7     8   ar
    21     8     9   ar
    22     9     1   ar
    23     9     4    1
    24    16    11   ar
    25     5    10    1
@<TRIPOS>MOLECULE
*****
 23 25 0 0 0
SMALL
GASTEIGER

@<TRIPOS>ATOM
      1 C          63.3167   83.1720   12.7096 C.ar    1  UNL1       -0.0001
      2 C          63.4418   81.9929   13.6284 C.ar    1  UNL1        0.0963
      3 N          63.8076   82.5037   14.9905 N.ar    1  UNL1       -0.2273
      4 C          63.9086   83.9983   14.9135 C.ar    1  UNL1        0.1402
      5 N          64.2377   85.0365   15.9449 N.ar    1  UNL1       -0.3374
      6 C          64.2633   86.4877   15.5666 C.ar    1  UNL1        0.0734
      7 C          63.9599   86.9008   14.1568 C.ar    1  UNL1        0.0171
      8 C          63.6308   85.8626   13.1254 C.ar    1  UNL1        0.0042
      9 C          63.6052   84.4113   13.5038 C.ar    1  UNL1        0.0315
     10 H          64.4368   84.7654   16.8701 H       1  UNL1        0.1674
     11 C          63.9855   88.3521   13.7785 C.ar    1  UNL1        0.0016
     12 C          63.3327   88.8074   12.5071 C.ar    1  UNL1        0.0001
     13 C          63.3583   90.2587   12.1288 C.ar    1  UNL1        0.0001
     14 C          64.0368   91.2547   13.0220 C.ar    1  UNL1        0.0045
     15 C          64.6896   90.7993   14.2934 C.ar    1  UNL1        0.0536
     16 C          64.6639   89.3481   14.6717 C.ar    1  UNL1        0.0046
     17 C          65.3680   91.7953   15.1866 C.2     1  UNL1        0.2491
     18 O          64.6556   92.3264   16.3951 O.2     1  UNL1       -0.2699
     19 N          66.7589   92.2603   14.8712 N.am    1  UNL1       -0.2726
     20 C          67.4373   93.2562   15.7644 C.3     1  UNL1        0.1152
     21 C          67.4713   91.7292   13.6628 C.3     1  UNL1        0.1152
     22 C          64.0398   83.2629   10.2157 C.3     1  UNL1        0.0051
     23 C          62.9648   83.1206   11.2523 C.3     1  UNL1        0.0280
@<TRIPOS>BOND
     1    22    23    1
     2    23     1    1
     3     1     2   ar
     4     2     3   ar
     5     3     4   ar
     6     4     5   ar
     7     5     6   ar
     8     6     7   ar
     9     7    11    1
    10    11    12   ar
    11    12    13   ar
    12    13    14   ar
    13    14    15   ar
    14    15    17    1
    15    17    18    2
    16    17    19   am
    17    19    20    1
    18    19    21    1
    19    15    16   ar
    20     7     8   ar
    21     8     9   ar
    22     9     1   ar
    23     9     4    1
    24    16    11   ar
    25     5    10    1
@<TRIPOS>MOLECULE
*****
 23 25 0 0 0
SMALL
GASTEIGER

@<TRIPOS>ATOM
      1 C          66.5989   93.2188   13.8970 C.ar    1  UNL1       -0.0001
      2 C          66.4945   94.1055   12.6916 C.ar    1  UNL1        0.0963
      3 N          65.4906   93.4995   11.7561 N.ar    1  UNL1       -0.2273
      4 C          64.9747   92.2384   12.3833 C.ar    1  UNL1        0.1402
      5 N          63.9697   91.2256   11.9206 N.ar    1  UNL1       -0.3374
      6 C          63.6497   90.0393   12.7810 C.ar    1  UNL1        0.0734
      7 C          64.3346   89.8659   14.1042 C.ar    1  UNL1        0.0171
      8 C          65.3396   90.8787   14.5669 C.ar    1  UNL1        0.0042
      9 C          65.6597   92.0649   13.7065 C.ar    1  UNL1        0.0315
     10 H          63.5201   91.3394   11.0522 H       1  UNL1        0.1674
     11 C          64.0146   88.6795   14.9646 C.ar    1  UNL1        0.0016
     12 C          63.3452   88.8750   16.2926 C.ar    1  UNL1        0.0001
     13 C          63.0251   87.6887   17.1530 C.ar    1  UNL1        0.0001
     14 C          63.3744   86.3069   16.6853 C.ar    1  UNL1        0.0045
     15 C          64.0438   86.1115   15.3572 C.ar    1  UNL1        0.0536
     16 C          64.3638   87.2978   14.4969 C.ar    1  UNL1        0.0046
     17 C          64.3931   84.7297   14.8895 C.2     1  UNL1        0.2491
     18 O          65.8214   84.3746   14.6000 O.2     1  UNL1       -0.2699
     19 N          63.3140   83.7031   14.7113 N.am    1  UNL1       -0.2726
     20 C          63.6633   82.3213   14.2436 C.3     1  UNL1        0.1152
     21 C          61.8857   84.0582   15.0009 C.3     1  UNL1        0.1152
     22 C          68.6447   92.5280   15.3419 C.3     1  UNL1        0.0051
     23 C          67.4868   93.4462   15.0844 C.3     1  UNL1        0.0280
@<TRIPOS>BOND
     1    22    23    1
     2    23     1    1
     3     1     2   ar
     4     2     3   ar
     5     3     4   ar
     6     4     5   ar
     7     5     6   ar
     8     6     7   ar
     9     7    11    1
    10    11    12   ar
    11    12    13   ar
    12    13    14   ar
    13    14    15   ar
    14    15    17    1
    15    17    18    2
    16    17    19   am
    17    19    20    1
    18    19    21    1
    19    15    16   ar
    20     7     8   ar
    21     8     9   ar
    22     9     1   ar
    23     9     4    1
    24    16    11   ar
    25     5    10    1
@<TRIPOS>MOLECULE
*****
 23 25 0 0 0
SMALL
GASTEIGER

@<TRIPOS>ATOM
      1 C          63.5160   83.6659   11.5868 C.ar    1  UNL1       -0.0001
      2 C          63.7267   82.1979   11.8117 C.ar    1  UNL1        0.0963
      3 N          64.0801   81.9962   13.2554 N.ar    1  UNL1       -0.2273
      4 C          64.0878   83.3396   13.9228 C.ar    1  UNL1        0.1402
      5 N          64.3672   83.7564   15.3363 N.ar    1  UNL1       -0.3374
      6 C          64.2980   85.2052   15.7186 C.ar    1  UNL1        0.0734
      7 C          63.9494   86.2372   14.6873 C.ar    1  UNL1        0.0171
      8 C          63.6700   85.8203   13.2737 C.ar    1  UNL1        0.0042
      9 C          63.7392   84.3715   12.8915 C.ar    1  UNL1        0.0315
     10 H          64.5960   83.0792   16.0132 H       1  UNL1        0.1674
     11 C          63.8802   87.6860   15.0695 C.ar    1  UNL1        0.0016
     12 C          63.3418   88.0825   16.4123 C.ar    1  UNL1        0.0001
     13 C          63.2726   89.5314   16.7945 C.ar    1  UNL1        0.0001
     14 C          63.7418   90.5837   15.8341 C.ar    1  UNL1        0.0045
     15 C          64.2802   90.1871   14.4913 C.ar    1  UNL1        0.0536
     16 C          64.3494   88.7383   14.1091 C.ar    1  UNL1        0.0046
     17 C          64.7494   91.2395   13.5308 C.2     1  UNL1        0.2491
     18 O          63.8980   91.6140   12.3540 O.2     1  UNL1       -0.2699
     19 N          66.0700   91.9172   13.7472 N.am    1  UNL1       -0.2726
     20 C          66.5391   92.9695   12.7867 C.3     1  UNL1        0.1152
     21 C          66.9213   91.5427   14.9239 C.3     1  UNL1        0.1152
     22 C          62.1297   85.4166   10.2588 C.3     1  UNL1        0.0051
     23 C          63.1469   84.3145   10.2856 C.3     1  UNL1        0.0280
@<TRIPOS>BOND
     1    22    23    1
     2    23     1    1
     3     1     2   ar
     4     2     3   ar
     5     3     4   ar
     6     4     5   ar
     7     5     6   ar
     8     6     7   ar
     9     7    11    1
    10    11    12   ar
    11    12    13   ar
    12    13    14   ar
    13    14    15   ar
    14    15    17    1
    15    17    18    2
    16    17    19   am
    17    19    20    1
    18    19    21    1
    19    15    16   ar
    20     7     8   ar
    21     8     9   ar
    22     9     1   ar
    23     9     4    1
    24    16    11   ar
    25     5    10    1
@<TRIPOS>MOLECULE
*****
 23 25 0 0 0
SMALL
GASTEIGER

@<TRIPOS>ATOM
      1 C          65.8216   92.3959   13.8829 C.ar    1  UNL1       -0.0001
      2 C          66.5582   93.6449   13.4991 C.ar    1  UNL1        0.0963
      3 N          66.1880   93.9855   12.0859 N.ar    1  UNL1       -0.2273
      4 C          65.2226   92.9471   11.5964 C.ar    1  UNL1        0.1402
      5 N          64.5205   92.7692   10.2829 N.ar    1  UNL1       -0.3374
      6 C          63.5919   91.6088   10.0800 C.ar    1  UNL1        0.0734
      7 C          63.3655   90.6263   11.1906 C.ar    1  UNL1        0.0171
      8 C          64.0676   90.8042   12.5041 C.ar    1  UNL1        0.0042
      9 C          64.9961   91.9646   12.7070 C.ar    1  UNL1        0.0315
     10 H          64.6691   93.4140    9.5540 H       1  UNL1        0.1674
     11 C          62.4368   89.4659   10.9876 C.ar    1  UNL1        0.0016
     12 C          61.0997   89.6793   10.3424 C.ar    1  UNL1        0.0001
     13 C          60.1710   88.5189   10.1394 C.ar    1  UNL1        0.0001
     14 C          60.5797   87.1450   10.5817 C.ar    1  UNL1        0.0045
     15 C          61.9169   86.9316   11.2269 C.ar    1  UNL1        0.0536
     16 C          62.8455   88.0920   11.4299 C.ar    1  UNL1        0.0046
     17 C          62.3256   85.5578   11.6692 C.2     1  UNL1        0.2491
     18 O          62.1635   85.1528   13.1043 O.2     1  UNL1       -0.2699
     19 N          62.8963   84.5890   10.6763 N.am    1  UNL1       -0.2726
     20 C          63.3049   83.2152   11.1186 C.3     1  UNL1        0.1152
     21 C          63.0583   84.9941    9.2412 C.3     1  UNL1        0.1152
     22 C          65.4124   92.3933   16.4486 C.3     1  UNL1        0.0051
     23 C          65.8971   91.7002   15.2097 C.3     1  UNL1        0.0280
@<TRIPOS>BOND
     1    22    23    1
     2    23     1    1
     3     1     2   ar
     4     2     3   ar
     5     3     4   ar
     6     4     5   ar
     7     5     6   ar
     8     6     7   ar
     9     7    11    1
    10    11    12   ar
    11    12    13   ar
    12    13    14   ar
    13    14    15   ar
    14    15    17    1
    15    17    18    2
    16    17    19   am
    17    19    20    1
    18    19    21    1
    19    15    16   ar
    20     7     8   ar
    21     8     9   ar
    22     9     1   ar
    23     9     4    1
    24    16    11   ar
    25     5    10    1
@<TRIPOS>MOLECULE
*****
 23 25 0 0 0
SMALL
GASTEIGER

@<TRIPOS>ATOM
      1 C          65.9174   92.5652   13.8949 C.ar    1  UNL1       -0.0001
      2 C          66.8401   93.6548   13.4352 C.ar    1  UNL1        0.0963
      3 N          66.5609   93.9175   11.9850 N.ar    1  UNL1       -0.2273
      4 C          65.4656   92.9902   11.5485 C.ar    1  UNL1        0.1402
      5 N          64.7790   92.7989   10.2286 N.ar    1  UNL1       -0.3374
      6 C          63.6948   91.7718   10.0892 C.ar    1  UNL1        0.0734
      7 C          63.2971   90.9361   11.2696 C.ar    1  UNL1        0.0171
      8 C          63.9836   91.1274   12.5895 C.ar    1  UNL1        0.0042
      9 C          65.0679   92.1544   12.7289 C.ar    1  UNL1        0.0315
     10 H          65.0400   93.3474    9.4539 H       1  UNL1        0.1674
     11 C          62.2128   89.9090   11.1302 C.ar    1  UNL1        0.0016
     12 C          60.9342   90.0589   11.9000 C.ar    1  UNL1        0.0001
     13 C          59.8498   89.0318   11.7605 C.ar    1  UNL1        0.0001
     14 C          60.0442   87.8548   10.8512 C.ar    1  UNL1        0.0045
     15 C          61.3229   87.7049   10.0814 C.ar    1  UNL1        0.0536
     16 C          62.4071   88.7319   10.2209 C.ar    1  UNL1        0.0046
     17 C          61.5172   86.5278    9.1721 C.2     1  UNL1        0.2491
     18 O          62.5983   85.5285    9.4595 O.2     1  UNL1       -0.2699
     19 N          60.6305   86.3502    7.9753 N.am    1  UNL1       -0.2726
     20 C          60.8248   85.1731    7.0660 C.3     1  UNL1        0.1152
     21 C          59.5494   87.3495    7.6879 C.3     1  UNL1        0.1152
     22 C          66.7462   92.5278   16.3570 C.3     1  UNL1        0.0051
     23 C          65.8551   91.9878   15.2779 C.3     1  UNL1        0.0280
@<TRIPOS>BOND
     1    22    23    1
     2    23     1    1
     3     1     2   ar
     4     2     3   ar
     5     3     4   ar
     6     4     5   ar
     7     5     6   ar
     8     6     7   ar
     9     7    11    1
    10    11    12   ar
    11    12    13   ar
    12    13    14   ar
    13    14    15   ar
    14    15    17    1
    15    17    18    2
    16    17    19   am
    17    19    20    1
    18    19    21    1
    19    15    16   ar
    20     7     8   ar
    21     8     9   ar
    22     9     1   ar
    23     9     4    1
    24    16    11   ar
    25     5    10    1
@<TRIPOS>MOLECULE
*****
 23 25 0 0 0
SMALL
GASTEIGER

@<TRIPOS>ATOM
      1 C          63.5234   82.7188   12.6383 C.ar    1  UNL1       -0.0001
      2 C          63.8026   81.5620   13.5515 C.ar    1  UNL1        0.0963
      3 N          64.2099   82.1128   14.8859 N.ar    1  UNL1       -0.2273
      4 C          64.1825   83.6099   14.7974 C.ar    1  UNL1        0.1402
      5 N          64.4890   84.6805   15.8023 N.ar    1  UNL1       -0.3374
      6 C          64.3712   86.1257   15.4181 C.ar    1  UNL1        0.0734
      7 C          63.9469   86.5002   14.0289 C.ar    1  UNL1        0.0171
      8 C          63.6404   85.4296   13.0241 C.ar    1  UNL1        0.0042
      9 C          63.7582   83.9845   13.4083 C.ar    1  UNL1        0.0315
     10 H          64.7675   84.4347   16.7141 H       1  UNL1        0.1674
     11 C          63.8291   87.9454   13.6447 C.ar    1  UNL1        0.0016
     12 C          64.3910   89.0082   14.5418 C.ar    1  UNL1        0.0001
     13 C          64.2732   90.4534   14.1576 C.ar    1  UNL1        0.0001
     14 C          63.5935   90.8357   12.8762 C.ar    1  UNL1        0.0045
     15 C          63.0317   89.7729   11.9791 C.ar    1  UNL1        0.0536
     16 C          63.1495   88.3278   12.3633 C.ar    1  UNL1        0.0046
     17 C          62.3521   90.1553   10.6977 C.2     1  UNL1        0.2491
     18 O          62.9905   91.1548    9.7794 O.2     1  UNL1       -0.2699
     19 N          61.0339   89.5381   10.3347 N.am    1  UNL1       -0.2726
     20 C          60.3543   89.9204    9.0533 C.3     1  UNL1        0.1152
     21 C          60.3955   88.5385   11.2530 C.3     1  UNL1        0.1152
     22 C          64.0288   83.0187   10.1075 C.3     1  UNL1        0.0051
     23 C          63.0862   82.6262   11.2064 C.3     1  UNL1        0.0280
@<TRIPOS>BOND
     1    22    23    1
     2    23     1    1
     3     1     2   ar
     4     2     3   ar
     5     3     4   ar
     6     4     5   ar
     7     5     6   ar
     8     6     7   ar
     9     7    11    1
    10    11    12   ar
    11    12    13   ar
    12    13    14   ar
    13    14    15   ar
    14    15    17    1
    15    17    18    2
    16    17    19   am
    17    19    20    1
    18    19    21    1
    19    15    16   ar
    20     7     8   ar
    21     8     9   ar
    22     9     1   ar
    23     9     4    1
    24    16    11   ar
    25     5    10    1
@<TRIPOS>MOLECULE
*****
 23 25 0 0 0
SMALL
GASTEIGER

@<TRIPOS>ATOM
      1 C          60.2708   89.3440    9.4086 C.ar    1  UNL1       -0.0001
      2 C          59.5073   89.6695    8.1591 C.ar    1  UNL1        0.0963
      3 N          59.5381   88.4622    7.2694 N.ar    1  UNL1       -0.2273
      4 C          60.3207   87.3907    7.9689 C.ar    1  UNL1        0.1402
      5 N          60.6795   85.9891    7.5728 N.ar    1  UNL1       -0.3374
      6 C          61.4911   85.1326    8.4989 C.ar    1  UNL1        0.0734
      7 C          61.9439   85.6775    9.8210 C.ar    1  UNL1        0.0171
      8 C          61.5852   87.0791   10.2170 C.ar    1  UNL1        0.0042
      9 C          60.7736   87.9356    9.2910 C.ar    1  UNL1        0.0315
     10 H          60.3823   85.6314    6.7051 H       1  UNL1        0.1674
     11 C          62.7556   84.8209   10.7470 C.ar    1  UNL1        0.0016
     12 C          63.7225   83.8195   10.1881 C.ar    1  UNL1        0.0001
     13 C          64.5341   82.9629   11.1142 C.ar    1  UNL1        0.0001
     14 C          64.3788   83.1077   12.5991 C.ar    1  UNL1        0.0045
     15 C          63.4119   84.1091   13.1579 C.ar    1  UNL1        0.0536
     16 C          62.6003   84.9657   12.2319 C.ar    1  UNL1        0.0046
     17 C          63.2566   84.2539   14.6428 C.2     1  UNL1        0.2491
     18 O          62.6386   83.1464   15.4438 O.2     1  UNL1       -0.2699
     19 N          63.7193   85.5062   15.3267 N.am    1  UNL1       -0.2726
     20 C          63.5640   85.6510   16.8116 C.3     1  UNL1        0.1152
     21 C          64.3373   86.6136   14.5258 C.3     1  UNL1        0.1152
     22 C          59.3837   90.5195   11.5490 C.3     1  UNL1        0.0051
     23 C          60.4927   90.2652   10.5714 C.3     1  UNL1        0.0280
@<TRIPOS>BOND
     1    22    23    1
     2    23     1    1
     3     1     2   ar
     4     2     3   ar
     5     3     4   ar
     6     4     5   ar
     7     5     6   ar
     8     6     7   ar
     9     7    11    1
    10    11    12   ar
    11    12    13   ar
    12    13    14   ar
    13    14    15   ar
    14    15    17    1
    15    17    18    2
    16    17    19   am
    17    19    20    1
    18    19    21    1
    19    15    16   ar
    20     7     8   ar
    21     8     9   ar
    22     9     1   ar
    23     9     4    1
    24    16    11   ar
    25     5    10    1
@<TRIPOS>MOLECULE
*****
 23 25 0 0 0
SMALL
GASTEIGER

@<TRIPOS>ATOM
      1 C          62.8094   82.6303   13.0083 C.ar    1  UNL1       -0.0001
      2 C          63.3410   81.4033   12.3285 C.ar    1  UNL1        0.0963
      3 N          63.5838   81.7405   10.8872 N.ar    1  UNL1       -0.2273
      4 C          63.2023   83.1757   10.6762 C.ar    1  UNL1        0.1402
      5 N          63.2289   84.0529    9.4597 N.ar    1  UNL1       -0.3374
      6 C          62.7769   85.4800    9.5542 C.ar    1  UNL1        0.0734
      7 C          62.2982   86.0299   10.8651 C.ar    1  UNL1        0.0171
      8 C          62.2717   85.1528   12.0815 C.ar    1  UNL1        0.0042
      9 C          62.7237   83.7257   11.9871 C.ar    1  UNL1        0.0315
     10 H          63.5430   83.6919    8.5993 H       1  UNL1        0.1674
     11 C          61.8462   87.4571   10.9595 C.ar    1  UNL1        0.0016
     12 C          60.3825   87.7838   10.9296 C.ar    1  UNL1        0.0001
     13 C          59.9305   89.2110   11.0241 C.ar    1  UNL1        0.0001
     14 C          60.9422   90.3115   11.1483 C.ar    1  UNL1        0.0045
     15 C          62.4059   89.9847   11.1781 C.ar    1  UNL1        0.0536
     16 C          62.8579   88.5576   11.0837 C.ar    1  UNL1        0.0046
     17 C          63.4176   91.0852   11.3024 C.2     1  UNL1        0.2491
     18 O          63.6619   92.0131   10.1495 O.2     1  UNL1       -0.2699
     19 N          64.1850   91.2578   12.5797 N.am    1  UNL1       -0.2726
     20 C          65.1967   92.3582   12.7039 C.3     1  UNL1        0.1152
     21 C          63.9408   90.3299   13.7326 C.3     1  UNL1        0.1152
     22 C          63.1325   83.7286   15.3405 C.3     1  UNL1        0.0051
     23 C          62.4301   82.7422   14.4552 C.3     1  UNL1        0.0280
@<TRIPOS>BOND
     1    22    23    1
     2    23     1    1
     3     1     2   ar
     4     2     3   ar
     5     3     4   ar
     6     4     5   ar
     7     5     6   ar
     8     6     7   ar
     9     7    11    1
    10    11    12   ar
    11    12    13   ar
    12    13    14   ar
    13    14    15   ar
    14    15    17    1
    15    17    18    2
    16    17    19   am
    17    19    20    1
    18    19    21    1
    19    15    16   ar
    20     7     8   ar
    21     8     9   ar
    22     9     1   ar
    23     9     4    1
    24    16    11   ar
    25     5    10    1
