@<TRIPOS>MOLECULE
*****
 28 31 0 0 0
SMALL
GASTEIGER

@<TRIPOS>ATOM
      1 C          60.7958   87.0441    8.7972 C.3     1  UNL1        0.0061
      2 C          61.4297   87.6947    9.9908 C.3     1  UNL1        0.0373
      3 C          60.5204   88.8007    9.5435 C.3     1  UNL1        0.0075
      4 C          60.4843   90.0948   10.3011 C.3     1  UNL1        0.0219
      5 C          61.3576   90.2829   11.5062 C.3     1  UNL1        0.0950
      6 N          62.2668   89.1770   11.9535 N.am    1  UNL1       -0.2639
      7 C          63.1401   89.3650   13.1585 C.2     1  UNL1        0.3040
      8 O          64.0493   88.2591   13.6058 O.2     1  UNL1       -0.2526
      9 N          63.1041   90.6592   13.9162 N.am    1  UNL1       -0.2884
     10 C          62.3029   87.8829   11.1958 C.3     1  UNL1        0.0989
     11 H          62.5073   91.3850   13.6226 H       1  UNL1        0.1510
     12 C          62.1188   86.3628   10.0235 C.ar    1  UNL1       -0.0212
     13 C          62.7571   85.8179    8.7803 C.ar    1  UNL1       -0.0042
     14 C          63.4462   84.4860    8.8130 C.ar    1  UNL1       -0.0003
     15 C          63.4970   83.6990   10.0890 C.ar    1  UNL1       -0.0000
     16 C          62.8586   84.2438   11.3322 C.ar    1  UNL1       -0.0003
     17 C          62.1695   85.5758   11.2995 C.ar    1  UNL1       -0.0042
     18 C          63.9773   90.8473   15.1212 C.3     1  UNL1        0.0953
     19 C          65.0303   91.9156   15.1250 C.3     1  UNL1        0.0437
     20 C          65.9839   92.0326   13.9730 C.2     1  UNL1       -0.0365
     21 C          67.3955   91.5459   14.1155 C.2     1  UNL1       -0.0065
     22 C          68.3491   91.6630   12.9635 C.2     1  UNL1        0.0197
     23 C          67.8910   92.2668   11.6691 C.2     1  UNL1        0.0969
     24 N          68.5993   92.5122   10.3699 N.2     1  UNL1       -0.2228
     25 C          67.6254   93.1506    9.4244 C.2     1  UNL1        0.1986
     26 N          66.3152   93.2997   10.1393 N.2     1  UNL1       -0.2265
     27 C          66.4793   92.7535   11.5266 C.2     1  UNL1        0.0824
     28 C          65.5258   92.6364   12.6786 C.3     1  UNL1        0.0694
@<TRIPOS>BOND
     1     1     2    1
     2     2    12    1
     3    12    13   ar
     4    13    14   ar
     5    14    15   ar
     6    15    16   ar
     7    16    17   ar
     8     2     3    1
     9     3     4    1
    10     4     5    1
    11     5     6    1
    12     6     7   am
    13     7     8    2
    14     7     9   am
    15     9    18    1
    16    18    19    1
    17    19    20    1
    18    20    21    2
    19    21    22    1
    20    22    23    2
    21    23    24    1
    22    24    25    2
    23    25    26    1
    24    26    27    2
    25    27    28    1
    26     6    10    1
    27    10     2    1
    28    17    12   ar
    29    28    20    1
    30    27    23    1
    31     9    11    1
@<TRIPOS>MOLECULE
*****
 28 31 0 0 0
SMALL
GASTEIGER

@<TRIPOS>ATOM
      1 C          60.7696   86.1711    9.0910 C.3     1  UNL1        0.0061
      2 C          61.4652   87.1432    9.9970 C.3     1  UNL1        0.0373
      3 C          60.5536   88.0798    9.2609 C.3     1  UNL1        0.0075
      4 C          60.5703   89.5460    9.5771 C.3     1  UNL1        0.0219
      5 C          61.4987   90.0756   10.6296 C.3     1  UNL1        0.0950
      6 N          62.4103   89.1392   11.3657 N.am    1  UNL1       -0.2639
      7 C          63.3387   89.6688   12.4181 C.2     1  UNL1        0.3040
      8 O          64.2503   88.7323   13.1542 O.2     1  UNL1       -0.2526
      9 N          63.3555   91.1350   12.7344 N.am    1  UNL1       -0.2884
     10 C          62.3936   87.6729   11.0494 C.3     1  UNL1        0.0989
     11 H          62.7571   91.7497   12.2512 H       1  UNL1        0.1510
     12 C          62.1353   85.8691   10.4185 C.ar    1  UNL1       -0.0212
     13 C          62.9190   85.0684    9.4211 C.ar    1  UNL1       -0.0042
     14 C          63.5890   83.7943    9.8425 C.ar    1  UNL1       -0.0003
     15 C          63.4753   83.3209   11.2613 C.ar    1  UNL1       -0.0000
     16 C          62.6916   84.1214   12.2587 C.ar    1  UNL1       -0.0003
     17 C          62.0216   85.3956   11.8372 C.ar    1  UNL1       -0.0042
     18 C          64.2838   91.6647   13.7868 C.3     1  UNL1        0.0953
     19 C          65.7456   91.8200   13.4881 C.3     1  UNL1        0.0437
     20 C          66.1905   92.6964   12.3549 C.2     1  UNL1       -0.0365
     21 C          66.8429   92.0891   11.1486 C.2     1  UNL1       -0.0065
     22 C          67.2878   92.9655   10.0153 C.2     1  UNL1        0.0197
     23 C          67.0802   94.4492   10.0886 C.2     1  UNL1        0.0969
     24 N          67.4121   95.5574    9.1338 N.2     1  UNL1       -0.2228
     25 C          66.9647   96.8497    9.7501 C.2     1  UNL1        0.1986
     26 N          66.3563   96.5402   11.0858 N.2     1  UNL1       -0.2265
     27 C          66.4277   95.0565   11.2950 C.2     1  UNL1        0.0824
     28 C          65.9828   94.1802   12.4281 C.3     1  UNL1        0.0694
@<TRIPOS>BOND
     1     1     2    1
     2     2    12    1
     3    12    13   ar
     4    13    14   ar
     5    14    15   ar
     6    15    16   ar
     7    16    17   ar
     8     2     3    1
     9     3     4    1
    10     4     5    1
    11     5     6    1
    12     6     7   am
    13     7     8    2
    14     7     9   am
    15     9    18    1
    16    18    19    1
    17    19    20    1
    18    20    21    2
    19    21    22    1
    20    22    23    2
    21    23    24    1
    22    24    25    2
    23    25    26    1
    24    26    27    2
    25    27    28    1
    26     6    10    1
    27    10     2    1
    28    17    12   ar
    29    28    20    1
    30    27    23    1
    31     9    11    1
@<TRIPOS>MOLECULE
*****
 28 31 0 0 0
SMALL
GASTEIGER

@<TRIPOS>ATOM
      1 C          64.1455   82.4954   11.1787 C.3     1  UNL1        0.0061
      2 C          63.3270   83.7290   10.9370 C.3     1  UNL1        0.0373
      3 C          63.9082   83.5298    9.5686 C.3     1  UNL1        0.0075
      4 C          63.5678   84.4845    8.4628 C.3     1  UNL1        0.0219
      5 C          62.6461   85.6385    8.7256 C.3     1  UNL1        0.0950
      6 N          62.0649   85.8377   10.0939 N.am    1  UNL1       -0.2639
      7 C          61.1432   86.9916   10.3567 C.2     1  UNL1        0.3040
      8 O          60.5620   87.1907   11.7251 O.2     1  UNL1       -0.2526
      9 N          60.8028   87.9463    9.2510 N.am    1  UNL1       -0.2884
     10 C          62.4053   84.8829   11.1997 C.3     1  UNL1        0.0989
     11 H          61.1842   87.8156    8.3529 H       1  UNL1        0.1510
     12 C          63.0300   83.4997   12.3893 C.ar    1  UNL1       -0.0212
     13 C          62.4162   82.2053   12.8341 C.ar    1  UNL1       -0.0042
     14 C          62.1193   81.9760   14.2864 C.ar    1  UNL1       -0.0003
     15 C          62.4361   83.0412   15.2939 C.ar    1  UNL1       -0.0000
     16 C          63.0499   84.3356   14.8492 C.ar    1  UNL1       -0.0003
     17 C          63.3468   84.5648   13.3969 C.ar    1  UNL1       -0.0042
     18 C          59.8811   89.1003    9.5137 C.3     1  UNL1        0.0953
     19 C          60.4452   90.4549    9.8249 C.3     1  UNL1        0.0437
     20 C          61.6137   90.5847   10.7565 C.2     1  UNL1       -0.0365
     21 C          62.9110   91.1491   10.2583 C.2     1  UNL1       -0.0065
     22 C          64.0795   91.2789   11.1899 C.2     1  UNL1        0.0197
     23 C          63.9506   90.8443   12.6197 C.2     1  UNL1        0.0969
     24 N          64.9223   90.8513   13.7624 N.2     1  UNL1       -0.2228
     25 C          64.2255   90.2912   14.9668 C.2     1  UNL1        0.1986
     26 N          62.8231   89.9380   14.5685 N.2     1  UNL1       -0.2265
     27 C          62.6532   90.2798   13.1179 C.2     1  UNL1        0.0824
     28 C          61.4848   90.1500   12.1863 C.3     1  UNL1        0.0694
@<TRIPOS>BOND
     1     1     2    1
     2     2    12    1
     3    12    13   ar
     4    13    14   ar
     5    14    15   ar
     6    15    16   ar
     7    16    17   ar
     8     2     3    1
     9     3     4    1
    10     4     5    1
    11     5     6    1
    12     6     7   am
    13     7     8    2
    14     7     9   am
    15     9    18    1
    16    18    19    1
    17    19    20    1
    18    20    21    2
    19    21    22    1
    20    22    23    2
    21    23    24    1
    22    24    25    2
    23    25    26    1
    24    26    27    2
    25    27    28    1
    26     6    10    1
    27    10     2    1
    28    17    12   ar
    29    28    20    1
    30    27    23    1
    31     9    11    1
@<TRIPOS>MOLECULE
*****
 28 31 0 0 0
SMALL
GASTEIGER

@<TRIPOS>ATOM
      1 C          62.5356   84.3267   11.9807 C.3     1  UNL1        0.0061
      2 C          62.9346   85.7353   12.3070 C.3     1  UNL1        0.0373
      3 C          63.4921   85.0229   13.5036 C.3     1  UNL1        0.0075
      4 C          64.2069   85.7967   14.5715 C.3     1  UNL1        0.0219
      5 C          64.3642   87.2829   14.4428 C.3     1  UNL1        0.0950
      6 N          63.8068   87.9953   13.2464 N.am    1  UNL1       -0.2639
      7 C          63.9640   89.4814   13.1176 C.2     1  UNL1        0.3040
      8 O          63.4066   90.1938   11.9212 O.2     1  UNL1       -0.2526
      9 N          64.6788   90.2552   14.1856 N.am    1  UNL1       -0.2884
     10 C          63.0919   87.2215   12.1784 C.3     1  UNL1        0.0989
     11 H          65.0447   89.7876   14.9709 H       1  UNL1        0.1510
     12 C          62.2386   85.9585   10.9972 C.ar    1  UNL1       -0.0212
     13 C          61.0043   86.8090   10.9392 C.ar    1  UNL1       -0.0042
     14 C          60.3082   87.0322    9.6293 C.ar    1  UNL1       -0.0003
     15 C          60.8464   86.4050    8.3776 C.ar    1  UNL1       -0.0000
     16 C          62.0807   85.5545    8.4355 C.ar    1  UNL1       -0.0003
     17 C          62.7767   85.3313    9.7454 C.ar    1  UNL1       -0.0042
     18 C          64.8362   91.7414   14.0570 C.3     1  UNL1        0.0953
     19 C          66.1953   92.3351   13.8330 C.3     1  UNL1        0.0437
     20 C          66.5724   92.8552   12.4775 C.2     1  UNL1       -0.0365
     21 C          67.3209   91.9774   11.5189 C.2     1  UNL1       -0.0065
     22 C          67.6980   92.4976   10.1634 C.2     1  UNL1        0.0197
     23 C          67.3265   93.8956    9.7666 C.2     1  UNL1        0.0969
     24 N          67.5609   94.6776    8.5083 N.2     1  UNL1       -0.2228
     25 C          66.9573   96.0388    8.6893 C.2     1  UNL1        0.1986
     26 N          66.3498   96.0981   10.0595 N.2     1  UNL1       -0.2265
     27 C          66.5780   94.7735   10.7254 C.2     1  UNL1        0.0824
     28 C          66.2010   94.2533   12.0808 C.3     1  UNL1        0.0694
@<TRIPOS>BOND
     1     1     2    1
     2     2    12    1
     3    12    13   ar
     4    13    14   ar
     5    14    15   ar
     6    15    16   ar
     7    16    17   ar
     8     2     3    1
     9     3     4    1
    10     4     5    1
    11     5     6    1
    12     6     7   am
    13     7     8    2
    14     7     9   am
    15     9    18    1
    16    18    19    1
    17    19    20    1
    18    20    21    2
    19    21    22    1
    20    22    23    2
    21    23    24    1
    22    24    25    2
    23    25    26    1
    24    26    27    2
    25    27    28    1
    26     6    10    1
    27    10     2    1
    28    17    12   ar
    29    28    20    1
    30    27    23    1
    31     9    11    1
@<TRIPOS>MOLECULE
*****
 28 31 0 0 0
SMALL
GASTEIGER

@<TRIPOS>ATOM
      1 C          65.2663   91.2333   14.0741 C.3     1  UNL1        0.0061
      2 C          64.2119   90.6971   13.1519 C.3     1  UNL1        0.0373
      3 C          64.8606   91.7035   12.2484 C.3     1  UNL1        0.0075
      4 C          64.3568   91.8889   10.8478 C.3     1  UNL1        0.0219
      5 C          63.2041   91.0678   10.3506 C.3     1  UNL1        0.0950
      6 N          62.5554   90.0614   11.2539 N.am    1  UNL1       -0.2639
      7 C          61.4027   89.2402   10.7568 C.2     1  UNL1        0.3040
      8 O          60.7540   88.2338   11.6601 O.2     1  UNL1       -0.2526
      9 N          60.8989   89.4256    9.3561 N.am    1  UNL1       -0.2884
     10 C          63.0592   89.8760   12.6546 C.3     1  UNL1        0.0989
     11 H          61.3247   90.0862    8.7632 H       1  UNL1        0.1510
     12 C          63.9293   89.8769   14.3756 C.ar    1  UNL1       -0.0212
     13 C          64.1589   88.3946   14.3544 C.ar    1  UNL1       -0.0042
     14 C          63.8764   87.5744   15.5781 C.ar    1  UNL1       -0.0003
     15 C          63.3642   88.2364   16.8229 C.ar    1  UNL1       -0.0000
     16 C          63.1346   89.7186   16.8441 C.ar    1  UNL1       -0.0003
     17 C          63.4172   90.5388   15.6204 C.ar    1  UNL1       -0.0042
     18 C          59.7463   88.6045    8.8588 C.3     1  UNL1        0.0953
     19 C          60.0009   87.3209    8.1257 C.3     1  UNL1        0.0437
     20 C          61.0572   86.3747    8.6149 C.2     1  UNL1       -0.0365
     21 C          62.0353   85.7774    7.6473 C.2     1  UNL1       -0.0065
     22 C          63.0915   84.8312    8.1364 C.2     1  UNL1        0.0197
     23 C          63.1695   84.4824    9.5932 C.2     1  UNL1        0.0969
     24 N          64.0945   83.5867   10.3627 N.2     1  UNL1       -0.2228
     25 C          63.6880   83.6306   11.8059 C.2     1  UNL1        0.1986
     26 N          62.5117   84.5533   11.9284 N.2     1  UNL1       -0.2265
     27 C          62.1912   85.0798   10.5608 C.2     1  UNL1        0.0824
     28 C          61.1351   86.0259   10.0716 C.3     1  UNL1        0.0694
@<TRIPOS>BOND
     1     1     2    1
     2     2    12    1
     3    12    13   ar
     4    13    14   ar
     5    14    15   ar
     6    15    16   ar
     7    16    17   ar
     8     2     3    1
     9     3     4    1
    10     4     5    1
    11     5     6    1
    12     6     7   am
    13     7     8    2
    14     7     9   am
    15     9    18    1
    16    18    19    1
    17    19    20    1
    18    20    21    2
    19    21    22    1
    20    22    23    2
    21    23    24    1
    22    24    25    2
    23    25    26    1
    24    26    27    2
    25    27    28    1
    26     6    10    1
    27    10     2    1
    28    17    12   ar
    29    28    20    1
    30    27    23    1
    31     9    11    1
@<TRIPOS>MOLECULE
*****
 28 31 0 0 0
SMALL
GASTEIGER

@<TRIPOS>ATOM
      1 C          63.2842   83.1524   11.0354 C.3     1  UNL1        0.0061
      2 C          63.3256   84.4621   11.7653 C.3     1  UNL1        0.0373
      3 C          63.9113   83.5618   12.8124 C.3     1  UNL1        0.0075
      4 C          64.3301   84.1260   14.1377 C.3     1  UNL1        0.0219
      5 C          64.1631   85.5905   14.4159 C.3     1  UNL1        0.0950
      6 N          63.5774   86.4908   13.3689 N.am    1  UNL1       -0.2639
      7 C          63.4103   87.9553   13.6470 C.2     1  UNL1        0.3040
      8 O          62.8247   88.8555   12.5999 O.2     1  UNL1       -0.2526
      9 N          63.8291   88.5195   14.9723 N.am    1  UNL1       -0.2884
     10 C          63.1586   85.9266   12.0435 C.3     1  UNL1        0.0989
     11 H          64.2135   87.9285   15.6595 H       1  UNL1        0.1510
     12 C          62.7255   84.9075   10.4647 C.ar    1  UNL1       -0.0212
     13 C          61.4845   85.7502   10.4610 C.ar    1  UNL1       -0.0042
     14 C          60.8844   86.1957    9.1604 C.ar    1  UNL1       -0.0003
     15 C          61.5252   85.7984    7.8637 C.ar    1  UNL1       -0.0000
     16 C          62.7661   84.9558    7.8674 C.ar    1  UNL1       -0.0003
     17 C          63.3662   84.5103    9.1679 C.ar    1  UNL1       -0.0042
     18 C          63.6621   89.9839   15.2505 C.3     1  UNL1        0.0953
     19 C          64.8607   90.8288   15.5663 C.3     1  UNL1        0.0437
     20 C          65.3792   91.8040   14.5514 C.2     1  UNL1       -0.0365
     21 C          66.2951   92.9132   14.9766 C.2     1  UNL1       -0.0065
     22 C          66.8136   93.8884   13.9616 C.2     1  UNL1        0.0197
     23 C          66.4162   93.7544   12.5214 C.2     1  UNL1        0.0969
     24 N          66.7657   94.5591   11.3048 N.2     1  UNL1       -0.2228
     25 C          66.0658   93.9472   10.1276 C.2     1  UNL1        0.1986
     26 N          65.2838   92.7643   10.6167 N.2     1  UNL1       -0.2265
     27 C          65.5003   92.6452   12.0962 C.2     1  UNL1        0.0824
     28 C          64.9818   91.6700   13.1112 C.3     1  UNL1        0.0694
@<TRIPOS>BOND
     1     1     2    1
     2     2    12    1
     3    12    13   ar
     4    13    14   ar
     5    14    15   ar
     6    15    16   ar
     7    16    17   ar
     8     2     3    1
     9     3     4    1
    10     4     5    1
    11     5     6    1
    12     6     7   am
    13     7     8    2
    14     7     9   am
    15     9    18    1
    16    18    19    1
    17    19    20    1
    18    20    21    2
    19    21    22    1
    20    22    23    2
    21    23    24    1
    22    24    25    2
    23    25    26    1
    24    26    27    2
    25    27    28    1
    26     6    10    1
    27    10     2    1
    28    17    12   ar
    29    28    20    1
    30    27    23    1
    31     9    11    1
@<TRIPOS>MOLECULE
*****
 28 31 0 0 0
SMALL
GASTEIGER

@<TRIPOS>ATOM
      1 C          64.5787   83.0436   14.5951 C.3     1  UNL1        0.0061
      2 C          64.1032   84.2533   13.8463 C.3     1  UNL1        0.0373
      3 C          64.6100   84.9048   15.0988 C.3     1  UNL1        0.0075
      4 C          64.5227   86.3938   15.2579 C.3     1  UNL1        0.0219
      5 C          63.9285   87.2313   14.1644 C.3     1  UNL1        0.0950
      6 N          63.4218   86.5799   12.9120 N.am    1  UNL1       -0.2639
      7 C          62.8276   87.4173   11.8185 C.2     1  UNL1        0.3040
      8 O          62.3209   86.7659   10.5661 O.2     1  UNL1       -0.2526
      9 N          62.7403   88.9064   11.9776 N.am    1  UNL1       -0.2884
     10 C          63.5091   85.0908   12.7529 C.3     1  UNL1        0.0989
     11 H          63.0729   89.3339   12.7997 H       1  UNL1        0.1510
     12 C          63.7616   83.1817   12.8539 C.ar    1  UNL1       -0.0212
     13 C          64.2005   83.3148   11.4256 C.ar    1  UNL1       -0.0042
     14 C          63.8588   82.2432   10.4332 C.ar    1  UNL1       -0.0003
     15 C          63.0783   81.0386   10.8689 C.ar    1  UNL1       -0.0000
     16 C          62.6394   80.9055   12.2971 C.ar    1  UNL1       -0.0003
     17 C          62.9811   81.9771   13.2895 C.ar    1  UNL1       -0.0042
     18 C          62.1462   89.7439   10.8842 C.3     1  UNL1        0.0953
     19 C          62.9226   90.8939   10.3143 C.3     1  UNL1        0.0437
     20 C          64.0076   91.5406   11.1236 C.2     1  UNL1       -0.0365
     21 C          65.0833   92.3311   10.4398 C.2     1  UNL1       -0.0065
     22 C          66.1682   92.9778   11.2490 C.2     1  UNL1        0.0197
     23 C          66.1773   92.8339   12.7420 C.2     1  UNL1        0.0969
     24 N          67.1104   93.3543   13.7949 N.2     1  UNL1       -0.2228
     25 C          66.6113   92.8853   15.1294 C.2     1  UNL1        0.1986
     26 N          65.3697   92.0751   14.9013 N.2     1  UNL1       -0.2265
     27 C          65.1014   92.0433   13.4258 C.2     1  UNL1        0.0824
     28 C          64.0166   91.3967   12.6166 C.3     1  UNL1        0.0694
@<TRIPOS>BOND
     1     1     2    1
     2     2    12    1
     3    12    13   ar
     4    13    14   ar
     5    14    15   ar
     6    15    16   ar
     7    16    17   ar
     8     2     3    1
     9     3     4    1
    10     4     5    1
    11     5     6    1
    12     6     7   am
    13     7     8    2
    14     7     9   am
    15     9    18    1
    16    18    19    1
    17    19    20    1
    18    20    21    2
    19    21    22    1
    20    22    23    2
    21    23    24    1
    22    24    25    2
    23    25    26    1
    24    26    27    2
    25    27    28    1
    26     6    10    1
    27    10     2    1
    28    17    12   ar
    29    28    20    1
    30    27    23    1
    31     9    11    1
@<TRIPOS>MOLECULE
*****
 28 31 0 0 0
SMALL
GASTEIGER

@<TRIPOS>ATOM
      1 C          61.6321   90.4472    9.0840 C.3     1  UNL1        0.0061
      2 C          62.1153   89.5961   10.2207 C.3     1  UNL1        0.0373
      3 C          62.7203   90.9134   10.6063 C.3     1  UNL1        0.0075
      4 C          63.5400   91.0248   11.8576 C.3     1  UNL1        0.0219
      5 C          63.7548   89.8187   12.7232 C.3     1  UNL1        0.0950
      6 N          63.1499   88.5014   12.3377 N.am    1  UNL1       -0.2639
      7 C          63.3646   87.2953   13.2033 C.2     1  UNL1        0.3040
      8 O          62.7597   85.9781   12.8177 O.2     1  UNL1       -0.2526
      9 N          64.1844   87.4067   14.4546 N.am    1  UNL1       -0.2884
     10 C          62.3301   88.3901   11.0864 C.3     1  UNL1        0.0989
     11 H          64.5814   88.2713   14.7077 H       1  UNL1        0.1510
     12 C          61.3425   88.5744    9.4404 C.ar    1  UNL1       -0.0212
     13 C          61.8260   87.1558    9.3774 C.ar    1  UNL1       -0.0042
     14 C          61.0533   86.1340    8.5970 C.ar    1  UNL1       -0.0003
     15 C          59.7971   86.5309    7.8797 C.ar    1  UNL1       -0.0000
     16 C          59.3136   87.9494    7.9427 C.ar    1  UNL1       -0.0003
     17 C          60.0864   88.9711    8.7230 C.ar    1  UNL1       -0.0042
     18 C          64.3992   86.2007   15.3203 C.3     1  UNL1        0.0953
     19 C          65.2827   85.0850   14.8463 C.3     1  UNL1        0.0437
     20 C          64.6907   83.9227   14.1054 C.2     1  UNL1       -0.0365
     21 C          65.0372   83.6973   12.6636 C.2     1  UNL1       -0.0065
     22 C          64.4453   82.5350   11.9228 C.2     1  UNL1        0.0197
     23 C          63.5068   81.5982   12.6240 C.2     1  UNL1        0.0969
     24 N          62.7736   80.3759   12.1566 N.2     1  UNL1       -0.2228
     25 C          61.9739   79.8459   13.3098 C.2     1  UNL1        0.1986
     26 N          62.2130   80.7406   14.4897 N.2     1  UNL1       -0.2265
     27 C          63.1604   81.8236   14.0659 C.2     1  UNL1        0.0824
     28 C          63.7523   82.9859   14.8066 C.3     1  UNL1        0.0694
@<TRIPOS>BOND
     1     1     2    1
     2     2    12    1
     3    12    13   ar
     4    13    14   ar
     5    14    15   ar
     6    15    16   ar
     7    16    17   ar
     8     2     3    1
     9     3     4    1
    10     4     5    1
    11     5     6    1
    12     6     7   am
    13     7     8    2
    14     7     9   am
    15     9    18    1
    16    18    19    1
    17    19    20    1
    18    20    21    2
    19    21    22    1
    20    22    23    2
    21    23    24    1
    22    24    25    2
    23    25    26    1
    24    26    27    2
    25    27    28    1
    26     6    10    1
    27    10     2    1
    28    17    12   ar
    29    28    20    1
    30    27    23    1
    31     9    11    1
@<TRIPOS>MOLECULE
*****
 28 31 0 0 0
SMALL
GASTEIGER

@<TRIPOS>ATOM
      1 C          59.7927   88.0240    8.2988 C.3     1  UNL1        0.0061
      2 C          60.5882   88.3689    9.5228 C.3     1  UNL1        0.0373
      3 C          59.5935   89.4917    9.5337 C.3     1  UNL1        0.0075
      4 C          59.6438   90.5278   10.6171 C.3     1  UNL1        0.0219
      5 C          60.6888   90.4412   11.6897 C.3     1  UNL1        0.0950
      6 N          61.6834   89.3186   11.6790 N.am    1  UNL1       -0.2639
      7 C          62.7284   89.2319   12.7516 C.2     1  UNL1        0.3040
      8 O          63.7230   88.1092   12.7408 O.2     1  UNL1       -0.2526
      9 N          62.7786   90.2681   13.8351 N.am    1  UNL1       -0.2884
     10 C          61.6331   88.2824   10.5955 C.3     1  UNL1        0.0989
     11 H          62.1258   91.0050   13.8421 H       1  UNL1        0.1510
     12 C          61.3066   87.1264    9.0869 C.ar    1  UNL1       -0.0212
     13 C          62.3347   86.5012    9.9826 C.ar    1  UNL1       -0.0042
     14 C          63.0531   85.2587    9.5467 C.ar    1  UNL1       -0.0003
     15 C          62.7434   84.6414    8.2152 C.ar    1  UNL1       -0.0000
     16 C          61.7154   85.2665    7.3194 C.ar    1  UNL1       -0.0003
     17 C          60.9970   86.5090    7.7554 C.ar    1  UNL1       -0.0042
     18 C          63.8236   90.1816   14.9077 C.3     1  UNL1        0.0953
     19 C          63.5264   89.4579   16.1875 C.3     1  UNL1        0.0437
     20 C          63.3952   87.9636   16.1910 C.2     1  UNL1       -0.0365
     21 C          62.4630   87.2948   17.1572 C.2     1  UNL1       -0.0065
     22 C          62.3317   85.8005   17.1607 C.2     1  UNL1        0.0197
     23 C          63.1329   84.9751   16.1980 C.2     1  UNL1        0.0969
     24 N          63.2126   83.4947   15.9699 N.2     1  UNL1       -0.2228
     25 C          64.1942   83.2486   14.8627 C.2     1  UNL1        0.1986
     26 N          64.7211   84.5768   14.4065 N.2     1  UNL1       -0.2265
     27 C          64.0652   85.6439   15.2318 C.2     1  UNL1        0.0824
     28 C          64.1963   87.1381   15.2283 C.3     1  UNL1        0.0694
@<TRIPOS>BOND
     1     1     2    1
     2     2    12    1
     3    12    13   ar
     4    13    14   ar
     5    14    15   ar
     6    15    16   ar
     7    16    17   ar
     8     2     3    1
     9     3     4    1
    10     4     5    1
    11     5     6    1
    12     6     7   am
    13     7     8    2
    14     7     9   am
    15     9    18    1
    16    18    19    1
    17    19    20    1
    18    20    21    2
    19    21    22    1
    20    22    23    2
    21    23    24    1
    22    24    25    2
    23    25    26    1
    24    26    27    2
    25    27    28    1
    26     6    10    1
    27    10     2    1
    28    17    12   ar
    29    28    20    1
    30    27    23    1
    31     9    11    1
