@<TRIPOS>MOLECULE
*****
 41 46 0 0 0
SMALL
GASTEIGER

@<TRIPOS>ATOM
      1 N          63.5046   91.1338   13.3560 N.3     1  UNL1       -0.2641
      2 C          64.7368   91.6491   12.6733 C.3     1  UNL1        0.0981
      3 C          64.7137   91.9377   11.2016 C.3     1  UNL1        0.0224
      4 C          65.9460   92.4530   10.5189 C.3     1  UNL1        0.0065
      5 C          67.2013   92.6798   11.3080 C.3     1  UNL1        0.0277
      6 C          67.2244   92.3912   12.7797 C.ar    1  UNL1       -0.0073
      7 C          68.4798   92.6179   13.5689 C.ar    1  UNL1       -0.0015
      8 C          68.5029   92.3293   15.0407 C.ar    1  UNL1        0.0203
      9 C          67.2706   91.8140   15.7233 C.ar    1  UNL1        0.0985
     10 N          66.0153   91.5873   14.9343 N.ar    1  UNL1       -0.2471
     11 C          65.9922   91.8759   13.4624 C.ar    1  UNL1        0.0695
     12 C          63.5566   90.7439   14.8035 C.3     1  UNL1        0.0994
     13 C          63.7607   86.3992   15.9575 C.ar    1  UNL1       -0.0064
     14 C          63.0255   87.3732   16.8298 C.ar    1  UNL1       -0.0032
     15 C          62.9574   88.8214   16.4452 C.ar    1  UNL1       -0.0032
     16 C          63.6246   89.2957   15.1881 C.ar    1  UNL1       -0.0062
     17 C          64.3598   88.3217   14.3159 C.ar    1  UNL1       -0.0032
     18 C          64.4279   86.8735   14.7005 C.ar    1  UNL1       -0.0032
     19 C          63.8288   84.9510   16.3421 C.3     1  UNL1        0.0956
     20 N          62.8171   83.9834   15.8030 N.3     1  UNL1       -0.2948
     21 H          62.7808   83.2009   16.4563 H       1  UNL1        0.1235
     22 C          62.9599   81.0109   10.9055 C.3     1  UNL1        0.0000
     23 C          63.3526   82.2236   11.6962 C.3     1  UNL1        0.0001
     24 C          64.0188   82.5376   10.3894 C.3     1  UNL1        0.0000
     25 C          63.9767   83.5454   12.0329 C.3     1  UNL1        0.0014
     26 C          63.7982   84.1321   13.4019 C.3     1  UNL1        0.0157
     27 C          62.9956   83.3968   14.4341 C.3     1  UNL1        0.0542
     28 C          62.3716   82.0751   14.0973 C.3     1  UNL1        0.0157
     29 C          62.5501   81.4885   12.7283 C.3     1  UNL1        0.0014
     30 C          62.2204   91.0084   12.5912 C.3     1  UNL1        0.0888
     31 C          61.9718   89.8018   11.7354 C.3     1  UNL1        0.0748
     32 C          61.0598   89.8991   10.5485 C.3     1  UNL1        0.0432
     33 C          60.8113   88.6924    9.6927 C.ar    1  UNL1       -0.0234
     34 C          59.8992   88.7897    8.5059 C.ar    1  UNL1       -0.0045
     35 C          59.6507   87.5832    7.6501 C.ar    1  UNL1       -0.0003
     36 C          60.3143   86.2793    7.9812 C.ar    1  UNL1       -0.0003
     37 C          61.2264   86.1820    9.1680 C.ar    1  UNL1       -0.0032
     38 C          61.4748   87.3886   10.0238 C.ar    1  UNL1       -0.0103
     39 C          62.3870   87.2914   11.2107 C.3     1  UNL1        0.0953
     40 N          62.6354   88.4979   12.0664 N.3     1  UNL1       -0.2934
     41 H          63.6412   88.6673   12.0517 H       1  UNL1        0.1236
@<TRIPOS>BOND
     1    22    23    1
     2    23    24    1
     3    23    25    1
     4    25    26    1
     5    26    27    1
     6    27    20    1
     7    20    19    1
     8    19    13    1
     9    13    14   ar
    10    14    15   ar
    11    15    16   ar
    12    16    12    1
    13    12     1    1
    14     1    30    1
    15    31    30    1
    16    31    32    1
    17    32    33    1
    18    33    34   ar
    19    34    35   ar
    20    35    36   ar
    21    36    37   ar
    22    37    38   ar
    23    38    39    1
    24    39    40    1
    25     2     1    1
    26     2     3    1
    27     3     4    1
    28     4     5    1
    29     5     6    1
    30     6     7   ar
    31     7     8   ar
    32     8     9   ar
    33     9    10   ar
    34    10    11   ar
    35    16    17   ar
    36    17    18   ar
    37    27    28    1
    38    28    29    1
    39    29    23    1
    40    18    13   ar
    41    40    31    1
    42    11     2    1
    43    38    33   ar
    44    11     6   ar
    45    20    21    1
    46    40    41    1
@<TRIPOS>MOLECULE
*****
 41 46 0 0 0
SMALL
GASTEIGER

@<TRIPOS>ATOM
      1 N          63.8370   90.7335   14.3699 N.3     1  UNL1       -0.2641
      2 C          65.2365   91.2025   14.1026 C.3     1  UNL1        0.0981
      3 C          66.2896   91.0624   15.1614 C.3     1  UNL1        0.0224
      4 C          67.6891   91.5314   14.8941 C.3     1  UNL1        0.0065
      5 C          68.0355   92.1406   13.5679 C.3     1  UNL1        0.0277
      6 C          66.9823   92.2807   12.5090 C.ar    1  UNL1       -0.0073
      7 C          67.3287   92.8899   11.1827 C.ar    1  UNL1       -0.0015
      8 C          66.2756   93.0301   10.1239 C.ar    1  UNL1        0.0203
      9 C          64.8761   92.5611   10.3912 C.ar    1  UNL1        0.0985
     10 N          64.5297   91.9519   11.7174 N.ar    1  UNL1       -0.2471
     11 C          65.5829   91.8117   12.7764 C.ar    1  UNL1        0.0695
     12 C          63.4976   90.0972   15.6851 C.3     1  UNL1        0.0994
     13 C          63.7055   85.6252   16.1412 C.ar    1  UNL1       -0.0064
     14 C          64.4952   86.3066   15.0632 C.ar    1  UNL1       -0.0032
     15 C          64.4259   87.7973   14.9111 C.ar    1  UNL1       -0.0032
     16 C          63.5669   88.6065   15.8371 C.ar    1  UNL1       -0.0062
     17 C          62.7773   87.9250   16.9151 C.ar    1  UNL1       -0.0032
     18 C          62.8465   86.4344   17.0671 C.ar    1  UNL1       -0.0032
     19 C          63.7748   84.1345   16.2932 C.3     1  UNL1        0.0956
     20 N          62.7759   83.2619   15.5924 N.3     1  UNL1       -0.2948
     21 H          62.7081   82.3995   16.1327 H       1  UNL1        0.1235
     22 C          63.2341   80.8916   10.3950 C.3     1  UNL1        0.0000
     23 C          63.4513   82.0613   11.3085 C.3     1  UNL1        0.0001
     24 C          64.0135   82.6180   10.0340 C.3     1  UNL1        0.0000
     25 C          63.8638   83.4245   11.7793 C.3     1  UNL1        0.0014
     26 C          63.6386   83.8247   13.2072 C.3     1  UNL1        0.0157
     27 C          63.0010   82.8617   14.1644 C.3     1  UNL1        0.0542
     28 C          62.5886   81.4986   13.6936 C.3     1  UNL1        0.0157
     29 C          62.8137   81.0984   12.2656 C.3     1  UNL1        0.0014
     30 C          62.7769   90.9009   13.3220 C.3     1  UNL1        0.0888
     31 C          62.4672   89.7739   12.3818 C.3     1  UNL1        0.0748
     32 C          61.4669   89.9688   11.2812 C.3     1  UNL1        0.0432
     33 C          61.1572   88.8418   10.3409 C.ar    1  UNL1       -0.0234
     34 C          60.1569   89.0366    9.2403 C.ar    1  UNL1       -0.0045
     35 C          59.8472   87.9097    8.3001 C.ar    1  UNL1       -0.0003
     36 C          60.5378   86.5878    8.4605 C.ar    1  UNL1       -0.0003
     37 C          61.5381   86.3929    9.5611 C.ar    1  UNL1       -0.0032
     38 C          61.8478   87.5199   10.5013 C.ar    1  UNL1       -0.0103
     39 C          62.8481   87.3251   11.6020 C.3     1  UNL1        0.0953
     40 N          63.1578   88.4520   12.5422 N.3     1  UNL1       -0.2934
     41 H          64.1590   88.6318   12.4667 H       1  UNL1        0.1236
@<TRIPOS>BOND
     1    22    23    1
     2    23    24    1
     3    23    25    1
     4    25    26    1
     5    26    27    1
     6    27    20    1
     7    20    19    1
     8    19    13    1
     9    13    14   ar
    10    14    15   ar
    11    15    16   ar
    12    16    12    1
    13    12     1    1
    14     1    30    1
    15    31    30    1
    16    31    32    1
    17    32    33    1
    18    33    34   ar
    19    34    35   ar
    20    35    36   ar
    21    36    37   ar
    22    37    38   ar
    23    38    39    1
    24    39    40    1
    25     2     1    1
    26     2     3    1
    27     3     4    1
    28     4     5    1
    29     5     6    1
    30     6     7   ar
    31     7     8   ar
    32     8     9   ar
    33     9    10   ar
    34    10    11   ar
    35    16    17   ar
    36    17    18   ar
    37    27    28    1
    38    28    29    1
    39    29    23    1
    40    18    13   ar
    41    40    31    1
    42    11     2    1
    43    38    33   ar
    44    11     6   ar
    45    20    21    1
    46    40    41    1
@<TRIPOS>MOLECULE
*****
 41 46 0 0 0
SMALL
GASTEIGER

@<TRIPOS>ATOM
      1 N          61.7109   87.2206   11.5628 N.3     1  UNL1       -0.2641
      2 C          62.3664   86.0340   10.9208 C.3     1  UNL1        0.0981
      3 C          62.6291   86.0300    9.4440 C.3     1  UNL1        0.0224
      4 C          63.2846   84.8434    8.8020 C.3     1  UNL1        0.0065
      5 C          63.6776   83.6608    9.6368 C.3     1  UNL1        0.0277
      6 C          63.4149   83.6647   11.1135 C.ar    1  UNL1       -0.0073
      7 C          63.8079   82.4820   11.9484 C.ar    1  UNL1       -0.0015
      8 C          63.5452   82.4860   13.4252 C.ar    1  UNL1        0.0203
      9 C          62.8897   83.6726   14.0672 C.ar    1  UNL1        0.0985
     10 N          62.4967   84.8552   13.2325 N.ar    1  UNL1       -0.2471
     11 C          62.7594   84.8513   11.7556 C.ar    1  UNL1        0.0695
     12 C          60.3006   87.5839   11.2035 C.3     1  UNL1        0.0994
     13 C          59.3748   89.2470    7.1259 C.ar    1  UNL1       -0.0064
     14 C          59.0854   87.8073    7.4322 C.ar    1  UNL1       -0.0032
     15 C          59.3940   87.2530    8.7914 C.ar    1  UNL1       -0.0032
     16 C          59.9920   88.1383    9.8443 C.ar    1  UNL1       -0.0062
     17 C          60.2814   89.5778    9.5381 C.ar    1  UNL1       -0.0032
     18 C          59.9728   90.1322    8.1788 C.ar    1  UNL1       -0.0032
     19 C          59.0662   89.8013    5.7667 C.3     1  UNL1        0.0956
     20 N          59.2194   91.2701    5.5032 N.3     1  UNL1       -0.2948
     21 H          58.2931   91.6248    5.2655 H       1  UNL1        0.1235
     22 C          62.0495   93.6444    1.1220 C.3     1  UNL1        0.0000
     23 C          62.0225   92.6982    2.2857 C.3     1  UNL1        0.0001
     24 C          63.4272   92.4814    1.8061 C.3     1  UNL1        0.0000
     25 C          62.4835   91.6767    3.2827 C.3     1  UNL1        0.0014
     26 C          61.5491   91.2007    4.3553 C.3     1  UNL1        0.0157
     27 C          60.1538   91.7461    4.4307 C.3     1  UNL1        0.0542
     28 C          59.6929   92.7676    3.4337 C.3     1  UNL1        0.0157
     29 C          60.6273   93.2437    2.3611 C.3     1  UNL1        0.0014
     30 C          62.4655   88.0438   12.5642 C.3     1  UNL1        0.0888
     31 C          63.1399   89.3134   12.1357 C.3     1  UNL1        0.0748
     32 C          64.0441   90.0402   13.0865 C.3     1  UNL1        0.0432
     33 C          64.7184   91.3098   12.6580 C.ar    1  UNL1       -0.0234
     34 C          65.6226   92.0366   13.6089 C.ar    1  UNL1       -0.0045
     35 C          66.2969   93.3060   13.1804 C.ar    1  UNL1       -0.0003
     36 C          66.0670   93.8487   11.8010 C.ar    1  UNL1       -0.0003
     37 C          65.1628   93.1219   10.8501 C.ar    1  UNL1       -0.0032
     38 C          64.4885   91.8524   11.2787 C.ar    1  UNL1       -0.0103
     39 C          63.5843   91.1256   10.3278 C.3     1  UNL1        0.0953
     40 N          62.9100   89.8561   10.7563 N.3     1  UNL1       -0.2934
     41 H          63.2041   89.1311   10.1018 H       1  UNL1        0.1236
@<TRIPOS>BOND
     1    22    23    1
     2    23    24    1
     3    23    25    1
     4    25    26    1
     5    26    27    1
     6    27    20    1
     7    20    19    1
     8    19    13    1
     9    13    14   ar
    10    14    15   ar
    11    15    16   ar
    12    16    12    1
    13    12     1    1
    14     1    30    1
    15    31    30    1
    16    31    32    1
    17    32    33    1
    18    33    34   ar
    19    34    35   ar
    20    35    36   ar
    21    36    37   ar
    22    37    38   ar
    23    38    39    1
    24    39    40    1
    25     2     1    1
    26     2     3    1
    27     3     4    1
    28     4     5    1
    29     5     6    1
    30     6     7   ar
    31     7     8   ar
    32     8     9   ar
    33     9    10   ar
    34    10    11   ar
    35    16    17   ar
    36    17    18   ar
    37    27    28    1
    38    28    29    1
    39    29    23    1
    40    18    13   ar
    41    40    31    1
    42    11     2    1
    43    38    33   ar
    44    11     6   ar
    45    20    21    1
    46    40    41    1
@<TRIPOS>MOLECULE
*****
 41 46 0 0 0
SMALL
GASTEIGER

@<TRIPOS>ATOM
      1 N          61.9022   87.5145   11.2517 N.3     1  UNL1       -0.2641
      2 C          61.0210   87.2382   10.0697 C.3     1  UNL1        0.0981
      3 C          59.6536   87.8500    9.9943 C.3     1  UNL1        0.0224
      4 C          58.7724   87.5737    8.8122 C.3     1  UNL1        0.0065
      5 C          59.2587   86.6856    7.7056 C.3     1  UNL1        0.0277
      6 C          60.6261   86.0737    7.7810 C.ar    1  UNL1       -0.0073
      7 C          61.1124   85.1855    6.6744 C.ar    1  UNL1       -0.0015
      8 C          62.4799   84.5736    6.7498 C.ar    1  UNL1        0.0203
      9 C          63.3610   84.8499    7.9319 C.ar    1  UNL1        0.0985
     10 N          62.8748   85.7381    9.0385 N.ar    1  UNL1       -0.2471
     11 C          61.5073   86.3500    8.9631 C.ar    1  UNL1        0.0695
     12 C          61.6378   88.7074   12.1217 C.3     1  UNL1        0.0994
     13 C          64.9833   91.5434   13.1291 C.ar    1  UNL1       -0.0064
     14 C          64.2431   91.6871   11.8323 C.ar    1  UNL1       -0.0032
     15 C          63.1279   90.7418   11.4965 C.ar    1  UNL1       -0.0032
     16 C          62.7529   89.6528   12.4575 C.ar    1  UNL1       -0.0062
     17 C          63.4931   89.5091   13.7542 C.ar    1  UNL1       -0.0032
     18 C          64.6083   90.4544   14.0900 C.ar    1  UNL1       -0.0032
     19 C          66.0984   92.4888   13.4648 C.3     1  UNL1        0.0956
     20 N          65.9518   93.9538   13.1777 N.3     1  UNL1       -0.2948
     21 H          64.9738   94.1901   13.3449 H       1  UNL1        0.1235
     22 C          67.5599   95.0989    7.7977 C.3     1  UNL1        0.0000
     23 C          67.0007   95.5651    9.1091 C.3     1  UNL1        0.0001
     24 C          66.9772   96.8544    8.3427 C.3     1  UNL1        0.0000
     25 C          66.4333   96.4792   10.1544 C.3     1  UNL1        0.0014
     26 C          66.0837   95.9421   11.5106 C.3     1  UNL1        0.0157
     27 C          66.3014   94.4909   11.8215 C.3     1  UNL1        0.0542
     28 C          66.8688   93.5768   10.7762 C.3     1  UNL1        0.0157
     29 C          67.2184   94.1140    9.4200 C.3     1  UNL1        0.0014
     30 C          63.0477   86.5978   11.5638 C.3     1  UNL1        0.0888
     31 C          62.7971   85.2964   12.2663 C.3     1  UNL1        0.0748
     32 C          62.9739   84.0010   11.5311 C.3     1  UNL1        0.0432
     33 C          62.7232   82.6996   12.2337 C.ar    1  UNL1       -0.0234
     34 C          62.9001   81.4041   11.4985 C.ar    1  UNL1       -0.0045
     35 C          62.6494   80.1028   12.2010 C.ar    1  UNL1       -0.0003
     36 C          62.2219   80.0969   13.6388 C.ar    1  UNL1       -0.0003
     37 C          62.0451   81.3923   14.3740 C.ar    1  UNL1       -0.0032
     38 C          62.2957   82.6936   13.6715 C.ar    1  UNL1       -0.0103
     39 C          62.1189   83.9891   14.4067 C.3     1  UNL1        0.0953
     40 N          62.3695   85.2905   13.7041 N.3     1  UNL1       -0.2934
     41 H          63.0981   85.7734   14.2299 H       1  UNL1        0.1236
@<TRIPOS>BOND
     1    22    23    1
     2    23    24    1
     3    23    25    1
     4    25    26    1
     5    26    27    1
     6    27    20    1
     7    20    19    1
     8    19    13    1
     9    13    14   ar
    10    14    15   ar
    11    15    16   ar
    12    16    12    1
    13    12     1    1
    14     1    30    1
    15    31    30    1
    16    31    32    1
    17    32    33    1
    18    33    34   ar
    19    34    35   ar
    20    35    36   ar
    21    36    37   ar
    22    37    38   ar
    23    38    39    1
    24    39    40    1
    25     2     1    1
    26     2     3    1
    27     3     4    1
    28     4     5    1
    29     5     6    1
    30     6     7   ar
    31     7     8   ar
    32     8     9   ar
    33     9    10   ar
    34    10    11   ar
    35    16    17   ar
    36    17    18   ar
    37    27    28    1
    38    28    29    1
    39    29    23    1
    40    18    13   ar
    41    40    31    1
    42    11     2    1
    43    38    33   ar
    44    11     6   ar
    45    20    21    1
    46    40    41    1
@<TRIPOS>MOLECULE
*****
 41 46 0 0 0
SMALL
GASTEIGER

@<TRIPOS>ATOM
      1 N          64.2510   91.4841   13.3890 N.3     1  UNL1       -0.2641
      2 C          65.7400   91.6439   13.3043 C.3     1  UNL1        0.0981
      3 C          66.5963   91.3374   14.4971 C.3     1  UNL1        0.0224
      4 C          68.0853   91.4972   14.4124 C.3     1  UNL1        0.0065
      5 C          68.7181   91.9635   13.1349 C.3     1  UNL1        0.0277
      6 C          67.8619   92.2701   11.9422 C.ar    1  UNL1       -0.0073
      7 C          68.4947   92.7365   10.6646 C.ar    1  UNL1       -0.0015
      8 C          67.6384   93.0430    9.4718 C.ar    1  UNL1        0.0203
      9 C          66.1494   92.8832    9.5565 C.ar    1  UNL1        0.0985
     10 N          65.5166   92.4169   10.8339 N.ar    1  UNL1       -0.2471
     11 C          66.3728   92.1103   12.0268 C.ar    1  UNL1        0.0695
     12 C          63.6149   91.0537   14.6775 C.3     1  UNL1        0.0994
     13 C          63.6623   86.7151   15.8710 C.ar    1  UNL1       -0.0064
     14 C          63.0809   87.7416   16.7975 C.ar    1  UNL1       -0.0032
     15 C          63.0651   89.1878   16.3997 C.ar    1  UNL1       -0.0032
     16 C          63.6307   89.6075   15.0753 C.ar    1  UNL1       -0.0062
     17 C          64.2120   88.5811   14.1488 C.ar    1  UNL1       -0.0032
     18 C          64.2278   87.1349   14.5466 C.ar    1  UNL1       -0.0032
     19 C          63.6781   85.2689   16.2688 C.3     1  UNL1        0.0956
     20 N          64.6496   84.3245   15.6250 N.3     1  UNL1       -0.2948
     21 H          65.4592   84.8792   15.3469 H       1  UNL1        0.1235
     22 C          63.5599   81.9469   10.5259 C.3     1  UNL1        0.0000
     23 C          63.4110   81.9353   12.0184 C.3     1  UNL1        0.0001
     24 C          62.6296   80.7035   11.6690 C.3     1  UNL1        0.0000
     25 C          62.9907   81.4958   13.3896 C.3     1  UNL1        0.0014
     26 C          63.4035   82.2922   14.5918 C.3     1  UNL1        0.0157
     27 C          64.2367   83.5281   14.4228 C.3     1  UNL1        0.0542
     28 C          64.6570   83.9675   13.0516 C.3     1  UNL1        0.0157
     29 C          64.2442   83.1711   11.8494 C.3     1  UNL1        0.0014
     30 C          63.3979   91.7547   12.1852 C.3     1  UNL1        0.0888
     31 C          62.5165   90.6742   11.6324 C.3     1  UNL1        0.0748
     32 C          63.1166   89.5438   10.8500 C.3     1  UNL1        0.0432
     33 C          62.2352   88.4632   10.2971 C.ar    1  UNL1       -0.0234
     34 C          62.8352   87.3329    9.5148 C.ar    1  UNL1       -0.0045
     35 C          61.9538   86.2524    8.9620 C.ar    1  UNL1       -0.0003
     36 C          60.4723   86.3024    9.1915 C.ar    1  UNL1       -0.0003
     37 C          59.8722   87.4327    9.9738 C.ar    1  UNL1       -0.0032
     38 C          60.7537   88.5132   10.5266 C.ar    1  UNL1       -0.0103
     39 C          60.1536   89.6437   11.3090 C.3     1  UNL1        0.0953
     40 N          61.0350   90.7241   11.8618 N.3     1  UNL1       -0.2934
     41 H          60.8936   90.7314   12.8720 H       1  UNL1        0.1236
@<TRIPOS>BOND
     1    22    23    1
     2    23    24    1
     3    23    25    1
     4    25    26    1
     5    26    27    1
     6    27    20    1
     7    20    19    1
     8    19    13    1
     9    13    14   ar
    10    14    15   ar
    11    15    16   ar
    12    16    12    1
    13    12     1    1
    14     1    30    1
    15    31    30    1
    16    31    32    1
    17    32    33    1
    18    33    34   ar
    19    34    35   ar
    20    35    36   ar
    21    36    37   ar
    22    37    38   ar
    23    38    39    1
    24    39    40    1
    25     2     1    1
    26     2     3    1
    27     3     4    1
    28     4     5    1
    29     5     6    1
    30     6     7   ar
    31     7     8   ar
    32     8     9   ar
    33     9    10   ar
    34    10    11   ar
    35    16    17   ar
    36    17    18   ar
    37    27    28    1
    38    28    29    1
    39    29    23    1
    40    18    13   ar
    41    40    31    1
    42    11     2    1
    43    38    33   ar
    44    11     6   ar
    45    20    21    1
    46    40    41    1
@<TRIPOS>MOLECULE
*****
 41 46 0 0 0
SMALL
GASTEIGER

@<TRIPOS>ATOM
      1 N          62.7211   86.9177   11.3607 N.3     1  UNL1       -0.2641
      2 C          62.4224   86.2920   10.0305 C.3     1  UNL1        0.0981
      3 C          63.3692   85.2866    9.4451 C.3     1  UNL1        0.0224
      4 C          63.0706   84.6609    8.1150 C.3     1  UNL1        0.0065
      5 C          61.8251   85.0406    7.3702 C.3     1  UNL1        0.0277
      6 C          60.8784   86.0460    7.9556 C.ar    1  UNL1       -0.0073
      7 C          59.6328   86.4257    7.2109 C.ar    1  UNL1       -0.0015
      8 C          58.6861   87.4311    7.7963 C.ar    1  UNL1        0.0203
      9 C          58.9847   88.0568    9.1264 C.ar    1  UNL1        0.0985
     10 N          60.2302   87.6772    9.8712 N.ar    1  UNL1       -0.2471
     11 C          61.1770   86.6717    9.2858 C.ar    1  UNL1        0.0695
     12 C          62.2127   88.2939   11.6732 C.3     1  UNL1        0.0994
     13 C          64.8505   91.2302   13.8343 C.ar    1  UNL1       -0.0064
     14 C          64.1477   91.6397   12.5739 C.ar    1  UNL1       -0.0032
     15 C          63.2684   90.6610   11.8536 C.ar    1  UNL1       -0.0032
     16 C          63.0919   89.2726   12.3936 C.ar    1  UNL1       -0.0062
     17 C          63.7948   88.8631   13.6538 C.ar    1  UNL1       -0.0032
     18 C          64.6741   89.8419   14.3742 C.ar    1  UNL1       -0.0032
     19 C          65.7298   92.2089   14.5546 C.3     1  UNL1        0.0956
     20 N          66.1347   93.4881   13.8839 N.3     1  UNL1       -0.2948
     21 H          65.3136   94.0932   13.8837 H       1  UNL1        0.1235
     22 C          68.5337   92.5597    8.7629 C.3     1  UNL1        0.0000
     23 C          67.6991   93.4195    9.6652 C.3     1  UNL1        0.0001
     24 C          67.6633   94.2443    8.4128 C.3     1  UNL1        0.0000
     25 C          66.8519   94.5659   10.1324 C.3     1  UNL1        0.0014
     26 C          66.3305   94.5888   11.5386 C.3     1  UNL1        0.0157
     27 C          66.6562   93.4652   12.4777 C.3     1  UNL1        0.0542
     28 C          67.5032   92.3189   12.0104 C.3     1  UNL1        0.0157
     29 C          68.0247   92.2960   10.6042 C.3     1  UNL1        0.0014
     30 C          63.5282   86.1674   12.3782 C.3     1  UNL1        0.0888
     31 C          63.0627   84.8268   12.8645 C.3     1  UNL1        0.0748
     32 C          63.2844   83.6053   12.0228 C.3     1  UNL1        0.0432
     33 C          62.8189   82.2647   12.5090 C.ar    1  UNL1       -0.0234
     34 C          63.0405   81.0432   11.6673 C.ar    1  UNL1       -0.0045
     35 C          62.5751   79.7027   12.1536 C.ar    1  UNL1       -0.0003
     36 C          61.8879   79.5839   13.4816 C.ar    1  UNL1       -0.0003
     37 C          61.6662   80.8055   14.3234 C.ar    1  UNL1       -0.0032
     38 C          62.1317   82.1459   13.8371 C.ar    1  UNL1       -0.0103
     39 C          61.9100   83.3676   14.6788 C.3     1  UNL1        0.0953
     40 N          62.3755   84.7080   14.1925 N.3     1  UNL1       -0.2934
     41 H          63.0246   85.0662   14.8930 H       1  UNL1        0.1236
@<TRIPOS>BOND
     1    22    23    1
     2    23    24    1
     3    23    25    1
     4    25    26    1
     5    26    27    1
     6    27    20    1
     7    20    19    1
     8    19    13    1
     9    13    14   ar
    10    14    15   ar
    11    15    16   ar
    12    16    12    1
    13    12     1    1
    14     1    30    1
    15    31    30    1
    16    31    32    1
    17    32    33    1
    18    33    34   ar
    19    34    35   ar
    20    35    36   ar
    21    36    37   ar
    22    37    38   ar
    23    38    39    1
    24    39    40    1
    25     2     1    1
    26     2     3    1
    27     3     4    1
    28     4     5    1
    29     5     6    1
    30     6     7   ar
    31     7     8   ar
    32     8     9   ar
    33     9    10   ar
    34    10    11   ar
    35    16    17   ar
    36    17    18   ar
    37    27    28    1
    38    28    29    1
    39    29    23    1
    40    18    13   ar
    41    40    31    1
    42    11     2    1
    43    38    33   ar
    44    11     6   ar
    45    20    21    1
    46    40    41    1
@<TRIPOS>MOLECULE
*****
 41 46 0 0 0
SMALL
GASTEIGER

@<TRIPOS>ATOM
      1 N          63.0467   85.2085   12.8791 N.3     1  UNL1       -0.2641
      2 C          63.2734   83.9927   12.0305 C.3     1  UNL1        0.0981
      3 C          63.9255   84.1271   10.6864 C.3     1  UNL1        0.0224
      4 C          64.1523   82.9112    9.8377 C.3     1  UNL1        0.0065
      5 C          63.7269   81.5609   10.3332 C.3     1  UNL1        0.0277
      6 C          63.0747   81.4264   11.6772 C.ar    1  UNL1       -0.0073
      7 C          62.6493   80.0760   12.1727 C.ar    1  UNL1       -0.0015
      8 C          61.9971   79.9415   13.5168 C.ar    1  UNL1        0.0203
      9 C          61.7704   81.1574   14.3654 C.ar    1  UNL1        0.0985
     10 N          62.1958   82.5077   13.8700 N.ar    1  UNL1       -0.2471
     11 C          62.8480   82.6423   12.5259 C.ar    1  UNL1        0.0695
     12 C          64.1559   85.7424   13.7362 C.3     1  UNL1        0.0994
     13 C          63.5793   89.5654   16.0388 C.ar    1  UNL1       -0.0064
     14 C          63.3721   88.2433   16.7164 C.ar    1  UNL1       -0.0032
     15 C          63.5643   86.9689   15.9488 C.ar    1  UNL1       -0.0032
     16 C          63.9637   87.0168   14.5037 C.ar    1  UNL1       -0.0062
     17 C          64.1708   88.3389   13.8262 C.ar    1  UNL1       -0.0032
     18 C          63.9786   89.6132   14.5938 C.ar    1  UNL1       -0.0032
     19 C          63.3871   90.8398   16.8064 C.3     1  UNL1        0.0956
     20 N          63.9260   92.1304   16.2642 N.3     1  UNL1       -0.2948
     21 H          63.2919   92.4256   15.5218 H       1  UNL1        0.1235
     22 C          68.8089   92.0544   13.2652 C.3     1  UNL1        0.0000
     23 C          68.0872   92.2913   14.5587 C.3     1  UNL1        0.0001
     24 C          69.4907   92.6105   14.9811 C.3     1  UNL1        0.0000
     25 C          67.8530   92.6392   15.9989 C.3     1  UNL1        0.0014
     26 C          66.4659   92.5855   16.5674 C.3     1  UNL1        0.0157
     27 C          65.3131   92.1841   15.6957 C.3     1  UNL1        0.0542
     28 C          65.5473   91.8362   14.2555 C.3     1  UNL1        0.0157
     29 C          66.9344   91.8899   13.6870 C.3     1  UNL1        0.0014
     30 C          61.7107   85.8905   12.8707 C.3     1  UNL1        0.0888
     31 C          61.3293   86.7789   11.7238 C.3     1  UNL1        0.0748
     32 C          60.7321   86.1858   10.4822 C.3     1  UNL1        0.0432
     33 C          60.3507   87.0741    9.3352 C.ar    1  UNL1       -0.0234
     34 C          59.7534   86.4811    8.0936 C.ar    1  UNL1       -0.0045
     35 C          59.3720   87.3694    6.9467 C.ar    1  UNL1       -0.0003
     36 C          59.5879   88.8507    7.0414 C.ar    1  UNL1       -0.0003
     37 C          60.1851   89.4438    8.2830 C.ar    1  UNL1       -0.0032
     38 C          60.5665   88.5555    9.4299 C.ar    1  UNL1       -0.0103
     39 C          61.1637   89.1485   10.6716 C.3     1  UNL1        0.0953
     40 N          61.5451   88.2602   11.8185 N.3     1  UNL1       -0.2934
     41 H          61.0174   88.5834   12.6293 H       1  UNL1        0.1236
@<TRIPOS>BOND
     1    22    23    1
     2    23    24    1
     3    23    25    1
     4    25    26    1
     5    26    27    1
     6    27    20    1
     7    20    19    1
     8    19    13    1
     9    13    14   ar
    10    14    15   ar
    11    15    16   ar
    12    16    12    1
    13    12     1    1
    14     1    30    1
    15    31    30    1
    16    31    32    1
    17    32    33    1
    18    33    34   ar
    19    34    35   ar
    20    35    36   ar
    21    36    37   ar
    22    37    38   ar
    23    38    39    1
    24    39    40    1
    25     2     1    1
    26     2     3    1
    27     3     4    1
    28     4     5    1
    29     5     6    1
    30     6     7   ar
    31     7     8   ar
    32     8     9   ar
    33     9    10   ar
    34    10    11   ar
    35    16    17   ar
    36    17    18   ar
    37    27    28    1
    38    28    29    1
    39    29    23    1
    40    18    13   ar
    41    40    31    1
    42    11     2    1
    43    38    33   ar
    44    11     6   ar
    45    20    21    1
    46    40    41    1
@<TRIPOS>MOLECULE
*****
 41 46 0 0 0
SMALL
GASTEIGER

@<TRIPOS>ATOM
      1 N          63.6866   84.2218   13.9179 N.3     1  UNL1       -0.2641
      2 C          62.9904   82.9089   13.7144 C.3     1  UNL1        0.0981
      3 C          62.1054   82.3544   14.7911 C.3     1  UNL1        0.0224
      4 C          61.4092   81.0414   14.5875 C.3     1  UNL1        0.0065
      5 C          61.5980   80.2829   13.3073 C.3     1  UNL1        0.0277
      6 C          62.4829   80.8374   12.2306 C.ar    1  UNL1       -0.0073
      7 C          62.6718   80.0789   10.9503 C.ar    1  UNL1       -0.0015
      8 C          63.5567   80.6334    9.8736 C.ar    1  UNL1        0.0203
      9 C          64.2529   81.9464   10.0771 C.ar    1  UNL1        0.0985
     10 N          64.0641   82.7048   11.3573 N.ar    1  UNL1       -0.2471
     11 C          63.1791   82.1504   12.4341 C.ar    1  UNL1        0.0695
     12 C          63.9547   84.7213   15.3066 C.3     1  UNL1        0.0994
     13 C          63.5172   89.1002   16.2465 C.ar    1  UNL1       -0.0064
     14 C          64.3008   88.6660   15.0433 C.ar    1  UNL1       -0.0032
     15 C          64.4466   87.2064   14.7300 C.ar    1  UNL1       -0.0032
     16 C          63.8088   86.1809   15.6199 C.ar    1  UNL1       -0.0062
     17 C          63.0254   86.6151   16.8230 C.ar    1  UNL1       -0.0032
     18 C          62.8796   88.0748   17.1364 C.ar    1  UNL1       -0.0032
     19 C          63.3714   90.5599   16.5599 C.3     1  UNL1        0.0956
     20 N          63.7872   91.5888   15.5506 N.3     1  UNL1       -0.2948
     21 H          63.4200   91.2826   14.6496 H       1  UNL1        0.1235
     22 C          69.2946   93.1711   15.6336 C.3     1  UNL1        0.0000
     23 C          68.1505   92.5000   14.9331 C.3     1  UNL1        0.0001
     24 C          69.2348   92.2943   13.9172 C.3     1  UNL1        0.0000
     25 C          67.3830   91.7575   13.8797 C.3     1  UNL1        0.0014
     26 C          65.9286   91.4537   14.0855 C.3     1  UNL1        0.0157
     27 C          65.2416   91.8925   15.3448 C.3     1  UNL1        0.0542
     28 C          66.0091   92.6351   16.3981 C.3     1  UNL1        0.0157
     29 C          67.4636   92.9388   16.1923 C.3     1  UNL1        0.0014
     30 C          64.1146   85.0354   12.7326 C.3     1  UNL1        0.0888
     31 C          63.0998   85.8213   11.9563 C.3     1  UNL1        0.0748
     32 C          63.0593   87.3161   12.0732 C.3     1  UNL1        0.0432
     33 C          62.0445   88.1020   11.2969 C.ar    1  UNL1       -0.0234
     34 C          62.0040   89.5968   11.4139 C.ar    1  UNL1       -0.0045
     35 C          60.9892   90.3826   10.6376 C.ar    1  UNL1       -0.0003
     36 C          60.0149   89.6735    9.7443 C.ar    1  UNL1       -0.0003
     37 C          60.0554   88.1787    9.6274 C.ar    1  UNL1       -0.0032
     38 C          61.0702   87.3929   10.4037 C.ar    1  UNL1       -0.0103
     39 C          61.1107   85.8980   10.2868 C.3     1  UNL1        0.0953
     40 N          62.1255   85.1122   11.0631 N.3     1  UNL1       -0.2934
     41 H          62.6766   84.5894   10.3824 H       1  UNL1        0.1236
@<TRIPOS>BOND
     1    22    23    1
     2    23    24    1
     3    23    25    1
     4    25    26    1
     5    26    27    1
     6    27    20    1
     7    20    19    1
     8    19    13    1
     9    13    14   ar
    10    14    15   ar
    11    15    16   ar
    12    16    12    1
    13    12     1    1
    14     1    30    1
    15    31    30    1
    16    31    32    1
    17    32    33    1
    18    33    34   ar
    19    34    35   ar
    20    35    36   ar
    21    36    37   ar
    22    37    38   ar
    23    38    39    1
    24    39    40    1
    25     2     1    1
    26     2     3    1
    27     3     4    1
    28     4     5    1
    29     5     6    1
    30     6     7   ar
    31     7     8   ar
    32     8     9   ar
    33     9    10   ar
    34    10    11   ar
    35    16    17   ar
    36    17    18   ar
    37    27    28    1
    38    28    29    1
    39    29    23    1
    40    18    13   ar
    41    40    31    1
    42    11     2    1
    43    38    33   ar
    44    11     6   ar
    45    20    21    1
    46    40    41    1
@<TRIPOS>MOLECULE
*****
 41 46 0 0 0
SMALL
GASTEIGER

@<TRIPOS>ATOM
      1 N          62.7919   85.4360   12.7781 N.3     1  UNL1       -0.2641
      2 C          63.1022   84.2151   11.9638 C.3     1  UNL1        0.0981
      3 C          63.7504   84.3558   10.6185 C.3     1  UNL1        0.0224
      4 C          64.0607   83.1349    9.8042 C.3     1  UNL1        0.0065
      5 C          63.7228   81.7733   10.3352 C.3     1  UNL1        0.0277
      6 C          63.0747   81.6327   11.6806 C.ar    1  UNL1       -0.0073
      7 C          62.7368   80.2711   12.2117 C.ar    1  UNL1       -0.0015
      8 C          62.0886   80.1305   13.5570 C.ar    1  UNL1        0.0203
      9 C          61.7783   81.3514   14.3714 C.ar    1  UNL1        0.0985
     10 N          62.1161   82.7129   13.8403 N.ar    1  UNL1       -0.2471
     11 C          62.7643   82.8536   12.4949 C.ar    1  UNL1        0.0695
     12 C          63.8613   86.0691   13.6180 C.3     1  UNL1        0.0994
     13 C          64.2112   90.5513   13.8123 C.ar    1  UNL1       -0.0064
     14 C          63.7170   89.8912   12.5592 C.ar    1  UNL1       -0.0032
     15 C          63.6003   88.3972   12.4945 C.ar    1  UNL1       -0.0032
     16 C          63.9779   87.5632   13.6828 C.ar    1  UNL1       -0.0062
     17 C          64.4721   88.2233   14.9358 C.ar    1  UNL1       -0.0032
     18 C          64.5887   89.7173   15.0005 C.ar    1  UNL1       -0.0032
     19 C          64.3278   92.0454   13.8771 C.3     1  UNL1        0.0956
     20 N          65.6758   92.6971   13.7863 N.3     1  UNL1       -0.2948
     21 H          65.5841   93.6229   14.2044 H       1  UNL1        0.1235
     22 C          67.6335   94.2344    8.6243 C.3     1  UNL1        0.0000
     23 C          67.6315   93.2714    9.7744 C.3     1  UNL1        0.0001
     24 C          68.6284   92.6017    8.8755 C.3     1  UNL1        0.0000
     25 C          67.9758   92.0758   10.6123 C.3     1  UNL1        0.0014
     26 C          67.3239   91.8843   11.9496 C.3     1  UNL1        0.0157
     27 C          66.3277   92.8885   12.4490 C.3     1  UNL1        0.0542
     28 C          65.9835   94.0841   11.6111 C.3     1  UNL1        0.0157
     29 C          66.6354   94.2755   10.2738 C.3     1  UNL1        0.0014
     30 C          61.4121   86.0238   12.7526 C.3     1  UNL1        0.0888
     31 C          60.9782   86.8688   11.5915 C.3     1  UNL1        0.0748
     32 C          60.7181   86.2338   10.2577 C.3     1  UNL1        0.0432
     33 C          60.2842   87.0788    9.0967 C.ar    1  UNL1       -0.0234
     34 C          60.0241   86.4438    7.7628 C.ar    1  UNL1       -0.0045
     35 C          59.5902   87.2887    6.6019 C.ar    1  UNL1       -0.0003
     36 C          59.4164   88.7686    6.7748 C.ar    1  UNL1       -0.0003
     37 C          59.6765   89.4035    8.1086 C.ar    1  UNL1       -0.0032
     38 C          60.1104   88.5586    9.2696 C.ar    1  UNL1       -0.0103
     39 C          60.3705   89.1935   10.6035 C.3     1  UNL1        0.0953
     40 N          60.8044   88.3486   11.7644 N.3     1  UNL1       -0.2934
     41 H          60.1098   88.4796   12.4998 H       1  UNL1        0.1236
@<TRIPOS>BOND
     1    22    23    1
     2    23    24    1
     3    23    25    1
     4    25    26    1
     5    26    27    1
     6    27    20    1
     7    20    19    1
     8    19    13    1
     9    13    14   ar
    10    14    15   ar
    11    15    16   ar
    12    16    12    1
    13    12     1    1
    14     1    30    1
    15    31    30    1
    16    31    32    1
    17    32    33    1
    18    33    34   ar
    19    34    35   ar
    20    35    36   ar
    21    36    37   ar
    22    37    38   ar
    23    38    39    1
    24    39    40    1
    25     2     1    1
    26     2     3    1
    27     3     4    1
    28     4     5    1
    29     5     6    1
    30     6     7   ar
    31     7     8   ar
    32     8     9   ar
    33     9    10   ar
    34    10    11   ar
    35    16    17   ar
    36    17    18   ar
    37    27    28    1
    38    28    29    1
    39    29    23    1
    40    18    13   ar
    41    40    31    1
    42    11     2    1
    43    38    33   ar
    44    11     6   ar
    45    20    21    1
    46    40    41    1
