@<TRIPOS>MOLECULE
*****
 37 41 0 0 0
SMALL
GASTEIGER

@<TRIPOS>ATOM
      1 C          61.1483   89.6660   11.7414 C.ar    1  UNL1        0.0860
      2 C          60.4783   90.8214   11.0585 C.ar    1  UNL1        0.1045
      3 N          59.9364   90.6597    9.6693 N.ar    1  UNL1       -0.2436
      4 C          60.0644   89.3426    8.9628 C.ar    1  UNL1        0.0826
      5 C          59.5225   89.1810    7.5735 C.ar    1  UNL1        0.0214
      6 C          59.6505   87.8639    6.8671 C.ar    1  UNL1        0.0312
      7 C          60.3205   86.7086    7.5501 C.ar    1  UNL1        0.1403
      8 F          60.4485   85.3915    6.8436 F       1  UNL1       -0.2042
      9 C          60.8624   86.8703    8.9393 C.ar    1  UNL1        0.0324
     10 C          60.7343   88.1873    9.6457 C.ar    1  UNL1        0.0334
     11 C          61.2763   88.3490   11.0351 C.ar    1  UNL1        0.0552
     12 N          65.7651   91.6300   13.7609 N.3     1  UNL1       -0.1559
     13 C          65.2231   91.4683   12.3716 C.3     1  UNL1        0.1169
     14 C          63.8649   90.8676   12.1616 C.3     1  UNL1        0.1129
     15 N          63.0484   90.4285   13.3408 N.am    1  UNL1       -0.2730
     16 C          61.6902   89.8277   13.1308 C.2     1  UNL1        0.2518
     17 O          60.8738   89.3887   14.3101 O.2     1  UNL1       -0.2698
     18 C          63.5903   90.5902   14.7301 C.3     1  UNL1        0.1129
     19 C          64.9486   91.1910   14.9402 C.3     1  UNL1        0.1169
     20 C          68.4816   92.8315   14.1810 C.3     1  UNL1        0.1960
     21 S          67.1233   92.2308   13.9710 S.O2    1  UNL1        0.0458
     22 O          67.0956   92.7812   12.5759 O.2     1  UNL1       -0.1572
     23 O          67.1510   91.6804   15.3660 O.2     1  UNL1       -0.1572
     24 N          61.9462   87.1936   11.7180 N.pl3   1  UNL1       -0.3072
     25 C          63.1496   87.4284   12.5821 C.3     1  UNL1        0.0922
     26 C          63.8195   86.2731   13.2650 C.3     1  UNL1        0.0397
     27 C          63.2860   84.8829   13.0838 C.3     1  UNL1        0.1013
     28 C          62.0826   84.6481   12.2196 C.3     1  UNL1        0.0397
     29 C          61.4127   85.8034   11.5367 C.3     1  UNL1        0.0922
     30 C          63.1547   83.3948   13.2190 C.ar    1  UNL1       -0.0096
     31 C          62.2695   82.8135   14.2813 C.ar    1  UNL1       -0.0033
     32 C          62.1381   81.3253   14.4165 C.ar    1  UNL1       -0.0003
     33 C          62.8919   80.4186   13.4894 C.ar    1  UNL1       -0.0000
     34 C          63.7771   80.9999   12.4271 C.ar    1  UNL1       -0.0003
     35 C          63.9085   82.4880   12.2919 C.ar    1  UNL1       -0.0033
     36 C          64.4438   84.6009   13.9949 C.1     1  UNL1        0.0753
     37 N          65.6015   84.3189   14.9059 N.1     1  UNL1       -0.1956
@<TRIPOS>BOND
     1    20    21    1
     2    21    22    2
     3    21    23    2
     4    21    12    1
     5    12    13    1
     6    13    14    1
     7    14    15    1
     8    15    16   am
     9    16    17    2
    10    16     1    1
    11     1     2   ar
    12     2     3   ar
    13     3     4   ar
    14     4     5   ar
    15     5     6   ar
    16     6     7   ar
    17     7     8    1
    18     7     9   ar
    19     9    10   ar
    20    10    11   ar
    21    11    24    1
    22    24    25    1
    23    25    26    1
    24    26    27    1
    25    27    36    1
    26    36    37    3
    27    27    30    1
    28    30    31   ar
    29    31    32   ar
    30    32    33   ar
    31    33    34   ar
    32    34    35   ar
    33    27    28    1
    34    28    29    1
    35    15    18    1
    36    18    19    1
    37    19    12    1
    38    11     1   ar
    39    29    24    1
    40    10     4   ar
    41    35    30   ar
@<TRIPOS>MOLECULE
*****
 37 41 0 0 0
SMALL
GASTEIGER

@<TRIPOS>ATOM
      1 C          59.5590   94.2992   -0.8190 C.ar    1  UNL1        0.0860
      2 C          58.5314   94.0475    0.2444 C.ar    1  UNL1        0.1045
      3 N          58.9321   93.3981    1.5358 N.ar    1  UNL1       -0.2436
      4 C          60.3603   93.0004    1.7639 C.ar    1  UNL1        0.0826
      5 C          60.7610   92.3511    3.0553 C.ar    1  UNL1        0.0214
      6 C          62.1892   91.9534    3.2834 C.ar    1  UNL1        0.0312
      7 C          63.2167   92.2051    2.2200 C.ar    1  UNL1        0.1403
      8 F          64.6450   91.8075    2.4481 F       1  UNL1       -0.2042
      9 C          62.8161   92.8545    0.9286 C.ar    1  UNL1        0.0324
     10 C          61.3879   93.2521    0.7005 C.ar    1  UNL1        0.0334
     11 C          60.9872   93.9015   -0.5909 C.ar    1  UNL1        0.0552
     12 N          57.1871   92.5104   -5.3383 N.3     1  UNL1       -0.1559
     13 C          57.5878   91.8610   -4.0469 C.3     1  UNL1        0.1169
     14 C          58.2448   92.6737   -2.9709 C.3     1  UNL1        0.1129
     15 N          58.5013   94.1358   -3.1864 N.am    1  UNL1       -0.2730
     16 C          59.1583   94.9486   -2.1105 C.2     1  UNL1        0.2518
     17 O          59.4147   96.4107   -2.3259 O.2     1  UNL1       -0.2698
     18 C          58.1006   94.7852   -4.4778 C.3     1  UNL1        0.1129
     19 C          57.4435   93.9725   -5.5538 C.3     1  UNL1        0.1169
     20 C          55.8729   90.8849   -7.4902 C.3     1  UNL1        0.1960
     21 S          56.5300   91.6976   -6.4143 S.O2    1  UNL1        0.0458
     22 O          57.4692   92.2806   -7.4282 O.2     1  UNL1       -0.1572
     23 O          55.5908   91.1147   -5.4004 O.2     1  UNL1       -0.1572
     24 N          62.0148   94.1533   -1.6543 N.pl3   1  UNL1       -0.3072
     25 C          62.8577   95.3930   -1.6042 C.3     1  UNL1        0.0922
     26 C          63.8853   95.6447   -2.6676 C.3     1  UNL1        0.0397
     27 C          64.0700   94.6567   -3.7810 C.3     1  UNL1        0.1013
     28 C          63.2271   93.4169   -3.8310 C.3     1  UNL1        0.0397
     29 C          62.1995   93.1651   -2.7677 C.3     1  UNL1        0.0922
     30 C          64.6129   94.0227   -5.0273 C.ar    1  UNL1       -0.0096
     31 C          64.6287   94.7925   -6.3146 C.ar    1  UNL1       -0.0033
     32 C          65.1717   94.1585   -7.5610 C.ar    1  UNL1       -0.0003
     33 C          65.6987   92.7548   -7.5200 C.ar    1  UNL1       -0.0000
     34 C          65.6829   91.9850   -6.2327 C.ar    1  UNL1       -0.0003
     35 C          65.1400   92.6190   -4.9863 C.ar    1  UNL1       -0.0033
     36 C          65.1014   95.6763   -4.1638 C.1     1  UNL1        0.0753
     37 N          66.1328   96.6958   -4.5466 N.1     1  UNL1       -0.1956
@<TRIPOS>BOND
     1    20    21    1
     2    21    22    2
     3    21    23    2
     4    21    12    1
     5    12    13    1
     6    13    14    1
     7    14    15    1
     8    15    16   am
     9    16    17    2
    10    16     1    1
    11     1     2   ar
    12     2     3   ar
    13     3     4   ar
    14     4     5   ar
    15     5     6   ar
    16     6     7   ar
    17     7     8    1
    18     7     9   ar
    19     9    10   ar
    20    10    11   ar
    21    11    24    1
    22    24    25    1
    23    25    26    1
    24    26    27    1
    25    27    36    1
    26    36    37    3
    27    27    30    1
    28    30    31   ar
    29    31    32   ar
    30    32    33   ar
    31    33    34   ar
    32    34    35   ar
    33    27    28    1
    34    28    29    1
    35    15    18    1
    36    18    19    1
    37    19    12    1
    38    11     1   ar
    39    29    24    1
    40    10     4   ar
    41    35    30   ar
@<TRIPOS>MOLECULE
*****
 37 41 0 0 0
SMALL
GASTEIGER

@<TRIPOS>ATOM
      1 C          62.3798   95.3485   -1.4196 C.ar    1  UNL1        0.0860
      2 C          63.8320   95.6564   -1.2043 C.ar    1  UNL1        0.1045
      3 N          64.8240   95.3966   -2.2990 N.ar    1  UNL1       -0.2436
      4 C          64.3639   94.8289   -3.6090 C.ar    1  UNL1        0.0826
      5 C          65.3559   94.5690   -4.7036 C.ar    1  UNL1        0.0214
      6 C          64.8958   94.0013   -6.0135 C.ar    1  UNL1        0.0312
      7 C          63.4436   93.6934   -6.2288 C.ar    1  UNL1        0.1403
      8 F          62.9835   93.1256   -7.5388 F       1  UNL1       -0.2042
      9 C          62.4516   93.9532   -5.1341 C.ar    1  UNL1        0.0324
     10 C          62.9117   94.5209   -3.8242 C.ar    1  UNL1        0.0334
     11 C          61.9196   94.7808   -2.7295 C.ar    1  UNL1        0.0552
     12 N          60.9092   92.6454    3.0280 N.3     1  UNL1       -0.1559
     13 C          61.9013   92.3855    1.9333 C.3     1  UNL1        0.1169
     14 C          62.0608   93.3732    0.8157 C.3     1  UNL1        0.1129
     15 N          61.2282   94.6207    0.7927 N.am    1  UNL1       -0.2730
     16 C          61.3877   95.6084   -0.3249 C.2     1  UNL1        0.2518
     17 O          60.5552   96.8559   -0.3478 O.2     1  UNL1       -0.2698
     18 C          60.2362   94.8806    1.8874 C.3     1  UNL1        0.1129
     19 C          60.0767   93.8929    3.0051 C.3     1  UNL1        0.1169
     20 C          60.5903   90.6701    5.2632 C.3     1  UNL1        0.1960
     21 S          60.7498   91.6577    4.1456 S.O2    1  UNL1        0.0458
     22 O          62.2036   91.3040    4.0404 O.2     1  UNL1       -0.1572
     23 O          59.2959   92.0115    4.2508 O.2     1  UNL1       -0.1572
     24 N          60.4674   94.4729   -2.9448 N.pl3   1  UNL1       -0.3072
     25 C          59.9279   93.1181   -2.5934 C.3     1  UNL1        0.0922
     26 C          58.4757   92.8102   -2.8087 C.3     1  UNL1        0.0397
     27 C          57.5631   93.8571   -3.3753 C.3     1  UNL1        0.1013
     28 C          58.1026   95.2119   -3.7267 C.3     1  UNL1        0.0397
     29 C          59.5548   95.5198   -3.5114 C.3     1  UNL1        0.0922
     30 C          56.3121   94.5125   -3.8809 C.ar    1  UNL1       -0.0096
     31 C          55.9932   94.4899   -5.3464 C.ar    1  UNL1       -0.0033
     32 C          54.7423   95.1453   -5.8520 C.ar    1  UNL1       -0.0003
     33 C          53.8103   95.8233   -4.8920 C.ar    1  UNL1       -0.0000
     34 C          54.1291   95.8460   -3.4265 C.ar    1  UNL1       -0.0003
     35 C          55.3801   95.1905   -2.9209 C.ar    1  UNL1       -0.0033
     36 C          56.5891   92.7299   -3.1995 C.1     1  UNL1        0.0753
     37 N          55.6152   91.6028   -3.0237 N.1     1  UNL1       -0.1956
@<TRIPOS>BOND
     1    20    21    1
     2    21    22    2
     3    21    23    2
     4    21    12    1
     5    12    13    1
     6    13    14    1
     7    14    15    1
     8    15    16   am
     9    16    17    2
    10    16     1    1
    11     1     2   ar
    12     2     3   ar
    13     3     4   ar
    14     4     5   ar
    15     5     6   ar
    16     6     7   ar
    17     7     8    1
    18     7     9   ar
    19     9    10   ar
    20    10    11   ar
    21    11    24    1
    22    24    25    1
    23    25    26    1
    24    26    27    1
    25    27    36    1
    26    36    37    3
    27    27    30    1
    28    30    31   ar
    29    31    32   ar
    30    32    33   ar
    31    33    34   ar
    32    34    35   ar
    33    27    28    1
    34    28    29    1
    35    15    18    1
    36    18    19    1
    37    19    12    1
    38    11     1   ar
    39    29    24    1
    40    10     4   ar
    41    35    30   ar
@<TRIPOS>MOLECULE
*****
 37 41 0 0 0
SMALL
GASTEIGER

@<TRIPOS>ATOM
      1 C          64.7029   91.0143   15.0591 C.ar    1  UNL1        0.0860
      2 C          65.8667   91.6998   15.7113 C.ar    1  UNL1        0.1045
      3 N          66.7796   92.5669   14.8959 N.ar    1  UNL1       -0.2436
      4 C          66.5285   92.7485   13.4282 C.ar    1  UNL1        0.0826
      5 C          67.4414   93.6155   12.6129 C.ar    1  UNL1        0.0214
      6 C          67.1903   93.7971   11.1452 C.ar    1  UNL1        0.0312
      7 C          66.0265   93.1115   10.4930 C.ar    1  UNL1        0.1403
      8 F          65.7754   93.2931    9.0253 F       1  UNL1       -0.2042
      9 C          65.1136   92.2445   11.3084 C.ar    1  UNL1        0.0324
     10 C          65.3647   92.0629   12.7760 C.ar    1  UNL1        0.0334
     11 C          64.4518   91.1958   13.5914 C.ar    1  UNL1        0.0552
     12 N          63.7663   85.6910   15.2485 N.3     1  UNL1       -0.1559
     13 C          64.6791   86.5581   14.4331 C.3     1  UNL1        0.1169
     14 C          64.6870   88.0435   14.6417 C.3     1  UNL1        0.1129
     15 N          63.7821   88.6618   15.6658 N.am    1  UNL1       -0.2730
     16 C          63.7900   90.1471   15.8745 C.2     1  UNL1        0.2518
     17 O          62.8851   90.7655   16.8986 O.2     1  UNL1       -0.2698
     18 C          62.8693   87.7948   16.4813 C.3     1  UNL1        0.1129
     19 C          62.8613   86.3093   16.2726 C.3     1  UNL1        0.1169
     20 C          63.7505   82.7203   14.8312 C.3     1  UNL1        0.1960
     21 S          63.7584   84.2056   15.0398 S.O2    1  UNL1        0.0458
     22 O          65.0604   84.3024   14.3014 O.2     1  UNL1       -0.1572
     23 O          62.4564   84.1088   15.7783 O.2     1  UNL1       -0.1572
     24 N          63.2879   90.5103   12.9392 N.pl3   1  UNL1       -0.3072
     25 C          61.9563   90.4740   13.6286 C.3     1  UNL1        0.0922
     26 C          60.7924   89.7885   12.9763 C.3     1  UNL1        0.0397
     27 C          60.9602   89.1392   11.6347 C.3     1  UNL1        0.1013
     28 C          62.2919   89.1754   10.9452 C.3     1  UNL1        0.0397
     29 C          63.4558   89.8609   11.5974 C.3     1  UNL1        0.0922
     30 C          60.6251   88.3865   10.3812 C.ar    1  UNL1       -0.0096
     31 C          60.0124   89.1052    9.2159 C.ar    1  UNL1       -0.0033
     32 C          59.6773   88.3524    7.9624 C.ar    1  UNL1       -0.0003
     33 C          59.9549   86.8810    7.8743 C.ar    1  UNL1       -0.0000
     34 C          60.5676   86.1623    9.0396 C.ar    1  UNL1       -0.0003
     35 C          60.9027   86.9150   10.2931 C.ar    1  UNL1       -0.0033
     36 C          59.5121   88.8415   11.8888 C.1     1  UNL1        0.0753
     37 N          58.0642   88.5439   12.1429 N.1     1  UNL1       -0.1956
@<TRIPOS>BOND
     1    20    21    1
     2    21    22    2
     3    21    23    2
     4    21    12    1
     5    12    13    1
     6    13    14    1
     7    14    15    1
     8    15    16   am
     9    16    17    2
    10    16     1    1
    11     1     2   ar
    12     2     3   ar
    13     3     4   ar
    14     4     5   ar
    15     5     6   ar
    16     6     7   ar
    17     7     8    1
    18     7     9   ar
    19     9    10   ar
    20    10    11   ar
    21    11    24    1
    22    24    25    1
    23    25    26    1
    24    26    27    1
    25    27    36    1
    26    36    37    3
    27    27    30    1
    28    30    31   ar
    29    31    32   ar
    30    32    33   ar
    31    33    34   ar
    32    34    35   ar
    33    27    28    1
    34    28    29    1
    35    15    18    1
    36    18    19    1
    37    19    12    1
    38    11     1   ar
    39    29    24    1
    40    10     4   ar
    41    35    30   ar
@<TRIPOS>MOLECULE
*****
 37 41 0 0 0
SMALL
GASTEIGER

@<TRIPOS>ATOM
      1 C          62.2379   89.0581   11.4625 C.ar    1  UNL1        0.0860
      2 C          61.7745   90.4680   11.2446 C.ar    1  UNL1        0.1045
      3 N          60.8406   90.7844   10.1143 N.ar    1  UNL1       -0.2436
      4 C          60.3699   89.6908    9.2018 C.ar    1  UNL1        0.0826
      5 C          59.4360   90.0071    8.0715 C.ar    1  UNL1        0.0214
      6 C          58.9654   88.9135    7.1591 C.ar    1  UNL1        0.0312
      7 C          59.4287   87.5036    7.3769 C.ar    1  UNL1        0.1403
      8 F          58.9581   86.4100    6.4644 F       1  UNL1       -0.2042
      9 C          60.3627   87.1873    8.5073 C.ar    1  UNL1        0.0324
     10 C          60.8333   88.2808    9.4197 C.ar    1  UNL1        0.0334
     11 C          61.7673   87.9645   10.5501 C.ar    1  UNL1        0.0552
     12 N          65.9662   91.9044   14.1548 N.3     1  UNL1       -0.1559
     13 C          65.0323   92.2207   13.0244 C.3     1  UNL1        0.1169
     14 C          64.1008   91.1665   12.5038 C.3     1  UNL1        0.1129
     15 N          64.1033   89.7960   13.1135 N.am    1  UNL1       -0.2730
     16 C          63.1718   88.7418   12.5929 C.2     1  UNL1        0.2518
     17 O          63.1743   87.3713   13.2026 O.2     1  UNL1       -0.2698
     18 C          65.0372   89.4797   14.2438 C.3     1  UNL1        0.1129
     19 C          65.9687   90.5339   14.7645 C.3     1  UNL1        0.1169
     20 C          67.8291   94.0127   15.1960 C.3     1  UNL1        0.1960
     21 S          66.8977   92.9585   14.6754 S.O2    1  UNL1        0.0458
     22 O          66.1000   94.0131   13.9673 O.2     1  UNL1       -0.1572
     23 O          67.6954   91.9040   15.3836 O.2     1  UNL1       -0.1572
     24 N          62.2306   86.5546   10.7679 N.pl3   1  UNL1       -0.3072
     25 C          63.0247   85.8535    9.7059 C.3     1  UNL1        0.0922
     26 C          63.4880   84.4436    9.9238 C.3     1  UNL1        0.0397
     27 C          63.1573   83.7348   11.2037 C.3     1  UNL1        0.1013
     28 C          62.3632   84.4359   12.2658 C.3     1  UNL1        0.0397
     29 C          61.8999   85.8458   12.0479 C.3     1  UNL1        0.0922
     30 C          63.0948   82.6519   12.2398 C.ar    1  UNL1       -0.0096
     31 C          63.7187   82.8659   13.5869 C.ar    1  UNL1       -0.0033
     32 C          63.6562   81.7829   14.6230 C.ar    1  UNL1       -0.0003
     33 C          62.9699   80.4860   14.3118 C.ar    1  UNL1       -0.0000
     34 C          62.3460   80.2720   12.9646 C.ar    1  UNL1       -0.0003
     35 C          62.4085   81.3549   11.9286 C.ar    1  UNL1       -0.0033
     36 C          63.9297   82.6576   10.5015 C.1     1  UNL1        0.0753
     37 N          64.7020   81.5805    9.7993 N.1     1  UNL1       -0.1956
@<TRIPOS>BOND
     1    20    21    1
     2    21    22    2
     3    21    23    2
     4    21    12    1
     5    12    13    1
     6    13    14    1
     7    14    15    1
     8    15    16   am
     9    16    17    2
    10    16     1    1
    11     1     2   ar
    12     2     3   ar
    13     3     4   ar
    14     4     5   ar
    15     5     6   ar
    16     6     7   ar
    17     7     8    1
    18     7     9   ar
    19     9    10   ar
    20    10    11   ar
    21    11    24    1
    22    24    25    1
    23    25    26    1
    24    26    27    1
    25    27    36    1
    26    36    37    3
    27    27    30    1
    28    30    31   ar
    29    31    32   ar
    30    32    33   ar
    31    33    34   ar
    32    34    35   ar
    33    27    28    1
    34    28    29    1
    35    15    18    1
    36    18    19    1
    37    19    12    1
    38    11     1   ar
    39    29    24    1
    40    10     4   ar
    41    35    30   ar
@<TRIPOS>MOLECULE
*****
 37 41 0 0 0
SMALL
GASTEIGER

@<TRIPOS>ATOM
      1 C          59.3782   94.4732   -0.6248 C.ar    1  UNL1        0.0860
      2 C          58.7388   94.0415    0.6617 C.ar    1  UNL1        0.1045
      3 N          59.5739   93.4243    1.7441 N.ar    1  UNL1       -0.2436
      4 C          61.0483   93.2386    1.5401 C.ar    1  UNL1        0.0826
      5 C          61.8834   92.6214    2.6225 C.ar    1  UNL1        0.0214
      6 C          63.3578   92.4357    2.4185 C.ar    1  UNL1        0.0312
      7 C          63.9971   92.8674    1.1320 C.ar    1  UNL1        0.1403
      8 F          65.4716   92.6817    0.9280 F       1  UNL1       -0.2042
      9 C          63.1621   93.4846    0.0496 C.ar    1  UNL1        0.0324
     10 C          61.6877   93.6703    0.2537 C.ar    1  UNL1        0.0334
     11 C          60.8526   94.2876   -0.8288 C.ar    1  UNL1        0.0552
     12 N          56.4933   92.4707   -4.7379 N.3     1  UNL1       -0.1559
     13 C          57.3284   91.8534   -3.6554 C.3     1  UNL1        0.1169
     14 C          58.0116   92.7267   -2.6452 C.3     1  UNL1        0.1129
     15 N          57.8598   94.2172   -2.7174 N.am    1  UNL1       -0.2730
     16 C          58.5431   95.0905   -1.7072 C.2     1  UNL1        0.2518
     17 O          58.3913   96.5810   -1.7794 O.2     1  UNL1       -0.2698
     18 C          57.0248   94.8345   -3.7998 C.3     1  UNL1        0.1129
     19 C          56.3414   93.9613   -4.8101 C.3     1  UNL1        0.1169
     20 C          55.1267   90.7242   -6.7583 C.3     1  UNL1        0.1960
     21 S          55.8100   91.5975   -5.7481 S.O2    1  UNL1        0.0458
     22 O          55.4820   90.6072   -4.6702 O.2     1  UNL1       -0.1572
     23 O          56.1380   92.5877   -6.8259 O.2     1  UNL1       -0.1572
     24 N          61.4919   94.7192   -2.1152 N.pl3   1  UNL1       -0.3072
     25 C          60.6584   95.3445   -3.1942 C.3     1  UNL1        0.0922
     26 C          61.2978   95.7762   -4.4806 C.3     1  UNL1        0.0397
     27 C          62.7706   95.5825   -4.6881 C.3     1  UNL1        0.1013
     28 C          63.6042   94.9571   -3.6091 C.3     1  UNL1        0.0397
     29 C          62.9649   94.5255   -2.3227 C.3     1  UNL1        0.0922
     30 C          64.1164   95.6092   -5.3502 C.ar    1  UNL1       -0.0096
     31 C          64.5061   94.5169   -6.3014 C.ar    1  UNL1       -0.0033
     32 C          65.8518   94.5435   -6.9635 C.ar    1  UNL1       -0.0003
     33 C          66.8079   95.6626   -6.6742 C.ar    1  UNL1       -0.0000
     34 C          66.4182   96.7549   -5.7230 C.ar    1  UNL1       -0.0003
     35 C          65.0725   96.7282   -5.0609 C.ar    1  UNL1       -0.0033
     36 C          62.4045   96.2171   -5.9970 C.1     1  UNL1        0.0753
     37 N          62.0383   96.8517   -7.3058 N.1     1  UNL1       -0.1956
@<TRIPOS>BOND
     1    20    21    1
     2    21    22    2
     3    21    23    2
     4    21    12    1
     5    12    13    1
     6    13    14    1
     7    14    15    1
     8    15    16   am
     9    16    17    2
    10    16     1    1
    11     1     2   ar
    12     2     3   ar
    13     3     4   ar
    14     4     5   ar
    15     5     6   ar
    16     6     7   ar
    17     7     8    1
    18     7     9   ar
    19     9    10   ar
    20    10    11   ar
    21    11    24    1
    22    24    25    1
    23    25    26    1
    24    26    27    1
    25    27    36    1
    26    36    37    3
    27    27    30    1
    28    30    31   ar
    29    31    32   ar
    30    32    33   ar
    31    33    34   ar
    32    34    35   ar
    33    27    28    1
    34    28    29    1
    35    15    18    1
    36    18    19    1
    37    19    12    1
    38    11     1   ar
    39    29    24    1
    40    10     4   ar
    41    35    30   ar
