@<TRIPOS>MOLECULE
*****
 25 27 0 0 0
SMALL
GASTEIGER

@<TRIPOS>ATOM
      1 C          64.1652   88.6550   14.2134 C.ar    1  UNL1       -0.0006
      2 C          63.4450   88.4003   12.9225 C.ar    1  UNL1       -0.0000
      3 C          63.1709   86.9929   12.4817 C.ar    1  UNL1        0.0000
      4 C          63.6170   85.8404   13.3317 C.ar    1  UNL1        0.0000
      5 C          64.3372   86.0951   14.6226 C.ar    1  UNL1        0.0000
      6 C          64.6113   87.5024   15.0634 C.ar    1  UNL1       -0.0000
      7 C          63.3428   84.4331   12.8908 C.ar    1  UNL1        0.0012
      8 C          63.5706   84.0369   11.4622 C.ar    1  UNL1        0.0001
      9 C          63.2964   82.6295   11.0213 C.ar    1  UNL1        0.0013
     10 C          62.7946   81.6185   12.0092 C.ar    1  UNL1        0.0141
     11 C          62.5668   82.0147   13.4378 C.ar    1  UNL1        0.0415
     12 N          62.0649   81.0037   14.4257 N.pl3   1  UNL1       -0.3570
     13 C          62.8409   83.4220   13.8787 C.ar    1  UNL1        0.0141
     14 H          61.8850   80.0800   14.1364 H       1  UNL1        0.1424
     15 H          61.9155   81.2638   15.3634 H       1  UNL1        0.1424
     16 C          63.0173   89.6694   16.7928 C.3     1  UNL1        0.0264
     17 C          63.8654   90.5695   15.9439 C.2     1  UNL1       -0.0436
     18 C          64.1395   91.9769   16.3848 C.3     1  UNL1        0.0264
     19 C          64.4393   90.0623   14.6542 C.2     1  UNL1       -0.0078
     20 C          65.2874   90.9625   13.8054 C.ar    1  UNL1        0.0025
     21 C          64.6935   91.6422   12.6074 C.ar    1  UNL1        0.0207
     22 C          65.5416   92.5423   11.7586 C.ar    1  UNL1        0.0989
     23 N          66.9837   92.7627   12.1078 N.ar    1  UNL1       -0.2423
     24 C          67.5776   92.0830   13.3058 C.ar    1  UNL1        0.0989
     25 C          66.7295   91.1829   14.1545 C.ar    1  UNL1        0.0207
@<TRIPOS>BOND
     1    16    17    1
     2    17    18    1
     3    17    19    2
     4    19    20    1
     5    20    21   ar
     6    21    22   ar
     7    22    23   ar
     8    23    24   ar
     9    24    25   ar
    10    19     1    1
    11     1     2   ar
    12     2     3   ar
    13     3     4   ar
    14     4     7    1
    15     7     8   ar
    16     8     9   ar
    17     9    10   ar
    18    10    11   ar
    19    11    12    1
    20    11    13   ar
    21     4     5   ar
    22     5     6   ar
    23    25    20   ar
    24     6     1   ar
    25    13     7   ar
    26    12    14    1
    27    12    15    1
@<TRIPOS>MOLECULE
*****
 25 27 0 0 0
SMALL
GASTEIGER

@<TRIPOS>ATOM
      1 C          62.8108   88.9257   11.8024 C.ar    1  UNL1       -0.0006
      2 C          63.3737   88.3312   13.0592 C.ar    1  UNL1       -0.0000
      3 C          64.3068   89.1342   13.9162 C.ar    1  UNL1        0.0000
      4 C          64.6771   90.5317   13.5164 C.ar    1  UNL1        0.0000
      5 C          64.1142   91.1262   12.2596 C.ar    1  UNL1        0.0000
      6 C          63.1810   90.3233   11.4026 C.ar    1  UNL1       -0.0000
      7 C          65.6102   91.3346   14.3734 C.ar    1  UNL1        0.0012
      8 C          65.1246   91.9202   15.6662 C.ar    1  UNL1        0.0001
      9 C          66.0579   92.7232   16.5232 C.ar    1  UNL1        0.0013
     10 C          67.4766   92.9405   16.0874 C.ar    1  UNL1        0.0141
     11 C          67.9622   92.3548   14.7947 C.ar    1  UNL1        0.0415
     12 N          69.3809   92.5721   14.3589 N.pl3   1  UNL1       -0.3570
     13 C          67.0291   91.5519   13.9377 C.ar    1  UNL1        0.0141
     14 H          69.9934   93.0991   14.9214 H       1  UNL1        0.1424
     15 H          69.6996   92.1877   13.5104 H       1  UNL1        0.1424
     16 C          60.0813   89.9882   11.1534 C.3     1  UNL1        0.0264
     17 C          60.5129   88.6541   10.6209 C.2     1  UNL1       -0.0436
     18 C          59.5797   87.8510    9.7638 C.3     1  UNL1        0.0264
     19 C          61.8776   88.1228   10.9454 C.2     1  UNL1       -0.0078
     20 C          62.3092   86.7885   10.4128 C.ar    1  UNL1        0.0025
     21 C          62.4563   85.6214   11.3434 C.ar    1  UNL1        0.0207
     22 C          62.8879   84.2873   10.8108 C.ar    1  UNL1        0.0989
     23 N          63.1723   84.1202    9.3476 N.ar    1  UNL1       -0.2423
     24 C          63.0252   85.2873    8.4169 C.ar    1  UNL1        0.0989
     25 C          62.5936   86.6215    8.9495 C.ar    1  UNL1        0.0207
@<TRIPOS>BOND
     1    16    17    1
     2    17    18    1
     3    17    19    2
     4    19    20    1
     5    20    21   ar
     6    21    22   ar
     7    22    23   ar
     8    23    24   ar
     9    24    25   ar
    10    19     1    1
    11     1     2   ar
    12     2     3   ar
    13     3     4   ar
    14     4     7    1
    15     7     8   ar
    16     8     9   ar
    17     9    10   ar
    18    10    11   ar
    19    11    12    1
    20    11    13   ar
    21     4     5   ar
    22     5     6   ar
    23    25    20   ar
    24     6     1   ar
    25    13     7   ar
    26    12    14    1
    27    12    15    1
@<TRIPOS>MOLECULE
*****
 25 27 0 0 0
SMALL
GASTEIGER

@<TRIPOS>ATOM
      1 C          62.5826   88.9174   10.8807 C.ar    1  UNL1       -0.0006
      2 C          63.0418   88.7269   12.2959 C.ar    1  UNL1       -0.0000
      3 C          63.8846   89.7760   12.9586 C.ar    1  UNL1        0.0000
      4 C          64.2681   91.0156   12.2061 C.ar    1  UNL1        0.0000
      5 C          63.8088   91.2062   10.7909 C.ar    1  UNL1        0.0000
      6 C          62.9661   90.1571   10.1282 C.ar    1  UNL1       -0.0000
      7 C          65.1108   92.0647   12.8688 C.ar    1  UNL1        0.0012
      8 C          65.6114   93.2356   12.0762 C.ar    1  UNL1        0.0001
      9 C          66.4542   94.2847   12.7390 C.ar    1  UNL1        0.0013
     10 C          66.7963   94.1628   14.1943 C.ar    1  UNL1        0.0141
     11 C          66.2956   92.9919   14.9870 C.ar    1  UNL1        0.0415
     12 N          66.6377   92.8700   16.4423 N.pl3   1  UNL1       -0.3570
     13 C          65.4529   91.9428   14.3242 C.ar    1  UNL1        0.0141
     14 H          67.1908   93.5586   16.8773 H       1  UNL1        0.1424
     15 H          66.3091   92.1015   16.9625 H       1  UNL1        0.1424
     16 C          59.8510   89.6149    9.8549 C.3     1  UNL1        0.0264
     17 C          60.3741   88.2171    9.7051 C.2     1  UNL1       -0.0436
     18 C          59.5313   87.1679    9.0423 C.3     1  UNL1        0.0264
     19 C          61.7398   87.8683   10.2180 C.2     1  UNL1       -0.0078
     20 C          62.2629   86.4704   10.0681 C.ar    1  UNL1        0.0025
     21 C          62.7734   85.9992    8.7388 C.ar    1  UNL1        0.0207
     22 C          63.2964   84.6014    8.5890 C.ar    1  UNL1        0.0989
     23 N          63.3089   83.6748    9.7685 N.ar    1  UNL1       -0.2423
     24 C          62.7983   84.1460   11.0978 C.ar    1  UNL1        0.0989
     25 C          62.2753   85.5439   11.2476 C.ar    1  UNL1        0.0207
@<TRIPOS>BOND
     1    16    17    1
     2    17    18    1
     3    17    19    2
     4    19    20    1
     5    20    21   ar
     6    21    22   ar
     7    22    23   ar
     8    23    24   ar
     9    24    25   ar
    10    19     1    1
    11     1     2   ar
    12     2     3   ar
    13     3     4   ar
    14     4     7    1
    15     7     8   ar
    16     8     9   ar
    17     9    10   ar
    18    10    11   ar
    19    11    12    1
    20    11    13   ar
    21     4     5   ar
    22     5     6   ar
    23    25    20   ar
    24     6     1   ar
    25    13     7   ar
    26    12    14    1
    27    12    15    1
@<TRIPOS>MOLECULE
*****
 25 27 0 0 0
SMALL
GASTEIGER

@<TRIPOS>ATOM
      1 C          63.5340   89.5494   12.8780 C.ar    1  UNL1       -0.0006
      2 C          62.9764   90.2063   11.6502 C.ar    1  UNL1       -0.0000
      3 C          62.4344   89.3673   10.5312 C.ar    1  UNL1        0.0000
      4 C          62.4500   87.8713   10.6399 C.ar    1  UNL1        0.0000
      5 C          63.0076   87.2144   11.8677 C.ar    1  UNL1        0.0000
      6 C          63.5496   88.0533   12.9868 C.ar    1  UNL1       -0.0000
      7 C          61.9080   87.0324    9.5209 C.ar    1  UNL1        0.0012
      8 C          62.7905   86.0278    8.8412 C.ar    1  UNL1        0.0001
      9 C          62.2484   85.1888    7.7221 C.ar    1  UNL1        0.0013
     10 C          60.8239   85.3544    7.2828 C.ar    1  UNL1        0.0141
     11 C          59.9413   86.3589    7.9624 C.ar    1  UNL1        0.0415
     12 N          58.5167   86.5245    7.5231 N.pl3   1  UNL1       -0.3570
     13 C          60.4833   87.1979    9.0815 C.ar    1  UNL1        0.0141
     14 H          58.1609   85.9738    6.7886 H       1  UNL1        0.1424
     15 H          57.9374   87.1838    7.9692 H       1  UNL1        0.1424
     16 C          62.2689   89.4241   15.5954 C.3     1  UNL1        0.0264
     17 C          63.4435   90.3257   15.3557 C.2     1  UNL1       -0.0436
     18 C          63.9856   91.1648   16.4748 C.3     1  UNL1        0.0264
     19 C          64.0761   90.3884   13.9971 C.2     1  UNL1       -0.0078
     20 C          65.2507   91.2900   13.7575 C.ar    1  UNL1        0.0025
     21 C          66.5227   91.0847   14.5255 C.ar    1  UNL1        0.0207
     22 C          67.6972   91.9864   14.2858 C.ar    1  UNL1        0.0989
     23 N          67.5998   93.0933   13.2783 N.ar    1  UNL1       -0.2423
     24 C          66.3278   93.2986   12.5103 C.ar    1  UNL1        0.0989
     25 C          65.1532   92.3969   12.7499 C.ar    1  UNL1        0.0207
@<TRIPOS>BOND
     1    16    17    1
     2    17    18    1
     3    17    19    2
     4    19    20    1
     5    20    21   ar
     6    21    22   ar
     7    22    23   ar
     8    23    24   ar
     9    24    25   ar
    10    19     1    1
    11     1     2   ar
    12     2     3   ar
    13     3     4   ar
    14     4     7    1
    15     7     8   ar
    16     8     9   ar
    17     9    10   ar
    18    10    11   ar
    19    11    12    1
    20    11    13   ar
    21     4     5   ar
    22     5     6   ar
    23    25    20   ar
    24     6     1   ar
    25    13     7   ar
    26    12    14    1
    27    12    15    1
@<TRIPOS>MOLECULE
*****
 25 27 0 0 0
SMALL
GASTEIGER

@<TRIPOS>ATOM
      1 C          64.4384   91.4475   11.7278 C.ar    1  UNL1       -0.0006
      2 C          63.8612   91.7564   10.3782 C.ar    1  UNL1       -0.0000
      3 C          62.8861   90.8087    9.7448 C.ar    1  UNL1        0.0000
      4 C          62.4883   89.5523   10.4610 C.ar    1  UNL1        0.0000
      5 C          63.0655   89.2434   11.8106 C.ar    1  UNL1        0.0000
      6 C          64.0406   90.1909   12.4440 C.ar    1  UNL1       -0.0000
      7 C          61.5132   88.6047    9.8275 C.ar    1  UNL1        0.0012
      8 C          61.4999   87.1604   10.2325 C.ar    1  UNL1        0.0001
      9 C          60.5247   86.2128    9.5990 C.ar    1  UNL1        0.0013
     10 C          59.5630   86.7095    8.5606 C.ar    1  UNL1        0.0141
     11 C          59.5763   88.1537    8.1556 C.ar    1  UNL1        0.0415
     12 N          58.6146   88.6503    7.1172 N.pl3   1  UNL1       -0.3570
     13 C          60.5514   89.1013    8.7891 C.ar    1  UNL1        0.0141
     14 H          57.9746   88.0284    6.7015 H       1  UNL1        0.1424
     15 H          58.6233   89.5983    6.8514 H       1  UNL1        0.1424
     16 C          64.8610   91.4019   14.6976 C.3     1  UNL1        0.0264
     17 C          65.6248   92.3723   13.8461 C.2     1  UNL1       -0.0436
     18 C          66.5999   93.3200   14.4795 C.3     1  UNL1        0.0264
     19 C          65.4135   92.3951   12.3613 C.2     1  UNL1       -0.0078
     20 C          66.1773   93.3656   11.5098 C.ar    1  UNL1        0.0025
     21 C          65.9200   94.8379   11.6357 C.ar    1  UNL1        0.0207
     22 C          66.6838   95.8083   10.7843 C.ar    1  UNL1        0.0989
     23 N          67.7049   95.3063    9.8070 N.ar    1  UNL1       -0.2423
     24 C          67.9623   93.8339    9.6810 C.ar    1  UNL1        0.0989
     25 C          67.1985   92.8636   10.5325 C.ar    1  UNL1        0.0207
@<TRIPOS>BOND
     1    16    17    1
     2    17    18    1
     3    17    19    2
     4    19    20    1
     5    20    21   ar
     6    21    22   ar
     7    22    23   ar
     8    23    24   ar
     9    24    25   ar
    10    19     1    1
    11     1     2   ar
    12     2     3   ar
    13     3     4   ar
    14     4     7    1
    15     7     8   ar
    16     8     9   ar
    17     9    10   ar
    18    10    11   ar
    19    11    12    1
    20    11    13   ar
    21     4     5   ar
    22     5     6   ar
    23    25    20   ar
    24     6     1   ar
    25    13     7   ar
    26    12    14    1
    27    12    15    1
@<TRIPOS>MOLECULE
*****
 25 27 0 0 0
SMALL
GASTEIGER

@<TRIPOS>ATOM
      1 C          63.2616   86.5822   12.5760 C.ar    1  UNL1       -0.0006
      2 C          63.9749   86.4474   13.8887 C.ar    1  UNL1       -0.0000
      3 C          64.4288   87.6730   14.6249 C.ar    1  UNL1        0.0000
      4 C          64.1694   89.0333   14.0485 C.ar    1  UNL1        0.0000
      5 C          63.4561   89.1681   12.7358 C.ar    1  UNL1        0.0000
      6 C          63.0022   87.9426   11.9996 C.ar    1  UNL1       -0.0000
      7 C          64.6232   90.2588   14.7847 C.ar    1  UNL1        0.0012
      8 C          63.8791   90.7209   16.0024 C.ar    1  UNL1        0.0001
      9 C          64.3330   91.9464   16.7387 C.ar    1  UNL1        0.0013
     10 C          65.5310   92.7099   16.2572 C.ar    1  UNL1        0.0141
     11 C          66.2752   92.2479   15.0395 C.ar    1  UNL1        0.0415
     12 N          67.4732   93.0114   14.5580 N.pl3   1  UNL1       -0.3570
     13 C          65.8213   91.0224   14.3033 C.ar    1  UNL1        0.0141
     14 H          67.7711   93.8157   15.0412 H       1  UNL1        0.1424
     15 H          67.9615   92.7081   13.7588 H       1  UNL1        0.1424
     16 C          63.2653   83.9172   13.9536 C.3     1  UNL1        0.0264
     17 C          62.8096   84.0242   12.5286 C.2     1  UNL1       -0.0436
     18 C          62.3557   82.7987   11.7923 C.3     1  UNL1        0.0264
     19 C          62.8077   85.3567   11.8398 C.2     1  UNL1       -0.0078
     20 C          62.3520   85.4636   10.4146 C.ar    1  UNL1        0.0025
     21 C          63.2153   84.9320    9.3092 C.ar    1  UNL1        0.0207
     22 C          62.7595   85.0389    7.8842 C.ar    1  UNL1        0.0989
     23 N          61.4405   85.6776    7.5646 N.ar    1  UNL1       -0.2423
     24 C          60.5771   86.2092    8.6700 C.ar    1  UNL1        0.0989
     25 C          61.0329   86.1023   10.0950 C.ar    1  UNL1        0.0207
@<TRIPOS>BOND
     1    16    17    1
     2    17    18    1
     3    17    19    2
     4    19    20    1
     5    20    21   ar
     6    21    22   ar
     7    22    23   ar
     8    23    24   ar
     9    24    25   ar
    10    19     1    1
    11     1     2   ar
    12     2     3   ar
    13     3     4   ar
    14     4     7    1
    15     7     8   ar
    16     8     9   ar
    17     9    10   ar
    18    10    11   ar
    19    11    12    1
    20    11    13   ar
    21     4     5   ar
    22     5     6   ar
    23    25    20   ar
    24     6     1   ar
    25    13     7   ar
    26    12    14    1
    27    12    15    1
@<TRIPOS>MOLECULE
*****
 25 27 0 0 0
SMALL
GASTEIGER

@<TRIPOS>ATOM
      1 C          62.8657   87.8176   11.7749 C.ar    1  UNL1       -0.0006
      2 C          63.5465   87.3584   13.0302 C.ar    1  UNL1       -0.0000
      3 C          64.2072   88.3572   13.9335 C.ar    1  UNL1        0.0000
      4 C          64.1872   89.8152   13.5815 C.ar    1  UNL1        0.0000
      5 C          63.5064   90.2744   12.3263 C.ar    1  UNL1        0.0000
      6 C          62.8457   89.2757   11.4230 C.ar    1  UNL1       -0.0000
      7 C          64.8479   90.8139   14.4848 C.ar    1  UNL1        0.0012
      8 C          64.1653   91.2500   15.7473 C.ar    1  UNL1        0.0001
      9 C          64.8261   92.2488   16.6506 C.ar    1  UNL1        0.0013
     10 C          66.1694   92.8114   16.2914 C.ar    1  UNL1        0.0141
     11 C          66.8520   92.3753   15.0289 C.ar    1  UNL1        0.0415
     12 N          68.1952   92.9378   14.6697 N.pl3   1  UNL1       -0.3570
     13 C          66.1912   91.3765   14.1256 C.ar    1  UNL1        0.0141
     14 H          68.6289   93.5933   15.2625 H       1  UNL1        0.1424
     15 H          68.6432   92.6516   13.8410 H       1  UNL1        0.1424
     16 C          60.7113   88.7009    9.8833 C.3     1  UNL1        0.0264
     17 C          61.1278   87.2606    9.9258 C.2     1  UNL1       -0.0436
     18 C          60.4671   86.2618    9.0225 C.3     1  UNL1        0.0264
     19 C          62.2050   86.8189   10.8717 C.2     1  UNL1       -0.0078
     20 C          62.6214   85.3785   10.9142 C.ar    1  UNL1        0.0025
     21 C          62.3718   84.5617   12.1473 C.ar    1  UNL1        0.0207
     22 C          62.7883   83.1213   12.1897 C.ar    1  UNL1        0.0989
     23 N          63.4544   82.4977   10.9992 N.ar    1  UNL1       -0.2423
     24 C          63.7040   83.3145    9.7661 C.ar    1  UNL1        0.0989
     25 C          63.2875   84.7549    9.7236 C.ar    1  UNL1        0.0207
@<TRIPOS>BOND
     1    16    17    1
     2    17    18    1
     3    17    19    2
     4    19    20    1
     5    20    21   ar
     6    21    22   ar
     7    22    23   ar
     8    23    24   ar
     9    24    25   ar
    10    19     1    1
    11     1     2   ar
    12     2     3   ar
    13     3     4   ar
    14     4     7    1
    15     7     8   ar
    16     8     9   ar
    17     9    10   ar
    18    10    11   ar
    19    11    12    1
    20    11    13   ar
    21     4     5   ar
    22     5     6   ar
    23    25    20   ar
    24     6     1   ar
    25    13     7   ar
    26    12    14    1
    27    12    15    1
@<TRIPOS>MOLECULE
*****
 25 27 0 0 0
SMALL
GASTEIGER

@<TRIPOS>ATOM
      1 C          63.1677   87.7918   12.4147 C.ar    1  UNL1       -0.0006
      2 C          62.3016   87.0328   11.4535 C.ar    1  UNL1       -0.0000
      3 C          62.1549   85.5461   11.5891 C.ar    1  UNL1        0.0000
      4 C          62.8741   84.8185   12.6860 C.ar    1  UNL1        0.0000
      5 C          63.7401   85.5774   13.6473 C.ar    1  UNL1        0.0000
      6 C          63.8869   87.0640   13.5116 C.ar    1  UNL1       -0.0000
      7 C          62.7273   83.3319   12.8217 C.ar    1  UNL1        0.0012
      8 C          62.3632   82.7321   14.1474 C.ar    1  UNL1        0.0001
      9 C          62.2164   81.2454   14.2830 C.ar    1  UNL1        0.0013
     10 C          62.4337   80.3586   13.0929 C.ar    1  UNL1        0.0141
     11 C          62.7977   80.9585   11.7671 C.ar    1  UNL1        0.0415
     12 N          63.0150   80.0717   10.5770 N.pl3   1  UNL1       -0.3570
     13 C          62.9445   82.4451   11.6315 C.ar    1  UNL1        0.0141
     14 H          62.9186   79.0960   10.6660 H       1  UNL1        0.1424
     15 H          63.2539   80.4655    9.7069 H       1  UNL1        0.1424
     16 C          62.3677   89.1515    9.8630 C.3     1  UNL1        0.0264
     17 C          62.9145   89.9582   11.0032 C.2     1  UNL1       -0.0436
     18 C          63.0613   91.4449   10.8676 C.3     1  UNL1        0.0264
     19 C          63.3145   89.2784   12.2791 C.2     1  UNL1       -0.0078
     20 C          63.8613   90.0852   13.4193 C.ar    1  UNL1        0.0025
     21 C          65.0917   90.9207   13.2247 C.ar    1  UNL1        0.0207
     22 C          65.6385   91.7275   14.3649 C.ar    1  UNL1        0.0989
     23 N          64.9548   91.6987   15.6997 N.ar    1  UNL1       -0.2423
     24 C          63.7244   90.8632   15.8944 C.ar    1  UNL1        0.0989
     25 C          63.1777   90.0564   14.7542 C.ar    1  UNL1        0.0207
@<TRIPOS>BOND
     1    16    17    1
     2    17    18    1
     3    17    19    2
     4    19    20    1
     5    20    21   ar
     6    21    22   ar
     7    22    23   ar
     8    23    24   ar
     9    24    25   ar
    10    19     1    1
    11     1     2   ar
    12     2     3   ar
    13     3     4   ar
    14     4     7    1
    15     7     8   ar
    16     8     9   ar
    17     9    10   ar
    18    10    11   ar
    19    11    12    1
    20    11    13   ar
    21     4     5   ar
    22     5     6   ar
    23    25    20   ar
    24     6     1   ar
    25    13     7   ar
    26    12    14    1
    27    12    15    1
@<TRIPOS>MOLECULE
*****
 25 27 0 0 0
SMALL
GASTEIGER

@<TRIPOS>ATOM
      1 C          64.7105   91.8700   11.8419 C.ar    1  UNL1       -0.0006
      2 C          64.2356   91.9511   10.4214 C.ar    1  UNL1       -0.0000
      3 C          63.3024   90.9080    9.8818 C.ar    1  UNL1        0.0000
      4 C          62.8442   89.7838   10.7627 C.ar    1  UNL1        0.0000
      5 C          63.3190   89.7026   12.1832 C.ar    1  UNL1        0.0000
      6 C          64.2522   90.7457   12.7228 C.ar    1  UNL1       -0.0000
      7 C          61.9110   88.7407   10.2231 C.ar    1  UNL1        0.0012
      8 C          61.9696   87.3374   10.7496 C.ar    1  UNL1        0.0001
      9 C          61.0364   86.2943   10.2099 C.ar    1  UNL1        0.0013
     10 C          60.0447   86.6546    9.1438 C.ar    1  UNL1        0.0141
     11 C          59.9861   88.0579    8.6173 C.ar    1  UNL1        0.0415
     12 N          58.9944   88.4182    7.5512 N.pl3   1  UNL1       -0.3570
     13 C          60.9192   89.1010    9.1569 C.ar    1  UNL1        0.0141
     14 H          58.3819   87.7336    7.1970 H       1  UNL1        0.1424
     15 H          58.9559   89.3393    7.2056 H       1  UNL1        0.1424
     16 C          65.0341   94.4822   10.4026 C.3     1  UNL1        0.0264
     17 C          65.8054   94.2192   11.6619 C.2     1  UNL1       -0.0436
     18 C          66.7386   95.2622   12.2015 C.3     1  UNL1        0.0264
     19 C          65.6436   92.9130   12.3815 C.2     1  UNL1       -0.0078
     20 C          66.4150   92.6500   13.6408 C.ar    1  UNL1        0.0025
     21 C          65.8155   92.9913   14.9727 C.ar    1  UNL1        0.0207
     22 C          66.5869   92.7282   16.2320 C.ar    1  UNL1        0.0989
     23 N          67.9579   92.1239   16.1593 N.ar    1  UNL1       -0.2423
     24 C          68.5574   91.7827   14.8274 C.ar    1  UNL1        0.0989
     25 C          67.7860   92.0457   13.5681 C.ar    1  UNL1        0.0207
@<TRIPOS>BOND
     1    16    17    1
     2    17    18    1
     3    17    19    2
     4    19    20    1
     5    20    21   ar
     6    21    22   ar
     7    22    23   ar
     8    23    24   ar
     9    24    25   ar
    10    19     1    1
    11     1     2   ar
    12     2     3   ar
    13     3     4   ar
    14     4     7    1
    15     7     8   ar
    16     8     9   ar
    17     9    10   ar
    18    10    11   ar
    19    11    12    1
    20    11    13   ar
    21     4     5   ar
    22     5     6   ar
    23    25    20   ar
    24     6     1   ar
    25    13     7   ar
    26    12    14    1
    27    12    15    1
