@<TRIPOS>MOLECULE
*****
 23 25 0 0 0
SMALL
GASTEIGER

@<TRIPOS>ATOM
      1 C          62.7855   85.6336   12.0416 C.2     1  UNL1        0.1983
      2 O          63.2575   86.0210   13.4116 O.2     1  UNL1       -0.2865
      3 C          62.1484   86.6582   11.1503 C.ar    1  UNL1        0.0402
      4 C          62.6178   88.0823   11.1897 C.ar    1  UNL1        0.0129
      5 C          61.9807   89.1068   10.2984 C.ar    1  UNL1        0.0688
      6 BR         62.4500   90.5310   10.3378 Br      1  UNL1       -0.0458
      7 C          60.8744   88.7072    9.3676 C.ar    1  UNL1        0.1459
      8 O          60.2374   89.7318    8.4763 O.3     1  UNL1       -0.5045
      9 C          60.4051   87.2831    9.3281 C.ar    1  UNL1        0.0688
     10 BR         59.2987   86.8835    8.3973 Br      1  UNL1       -0.0458
     11 C          61.0421   86.2586   10.2195 C.ar    1  UNL1        0.0129
     12 H          60.5305   90.6214    8.5009 H       1  UNL1        0.2922
     13 C          63.4166   83.8014   10.2005 C.ar    1  UNL1        0.1258
     14 O          63.4325   82.3021   10.1581 O.2     1  UNL1       -0.4577
     15 C          62.9762   81.7957   11.4943 C.ar    1  UNL1        0.1449
     16 C          62.7934   80.4076   12.0326 C.ar    1  UNL1        0.0375
     17 C          62.3128   80.2059   13.4391 C.ar    1  UNL1        0.0031
     18 C          62.0149   81.3923   14.3073 C.ar    1  UNL1        0.0002
     19 C          62.1976   82.7804   13.7690 C.ar    1  UNL1        0.0032
     20 C          62.6783   82.9821   12.3625 C.ar    1  UNL1        0.0403
     21 C          62.9505   84.2216   11.5629 C.ar    1  UNL1        0.0722
     22 C          62.9062   84.8529    7.8802 C.3     1  UNL1        0.0084
     23 C          63.7996   84.7193    9.0777 C.3     1  UNL1        0.0646
@<TRIPOS>BOND
     1    22    23    1
     2    23    13    1
     3    13    14   ar
     4    14    15   ar
     5    15    16   ar
     6    16    17   ar
     7    17    18   ar
     8    18    19   ar
     9    19    20   ar
    10    20    21   ar
    11    21     1    1
    12     1     2    2
    13     1     3    1
    14     3     4   ar
    15     4     5   ar
    16     5     6    1
    17     5     7   ar
    18     7     8    1
    19     7     9   ar
    20     9    10    1
    21     9    11   ar
    22    21    13   ar
    23    11     3   ar
    24    20    15   ar
    25     8    12    1
@<TRIPOS>MOLECULE
*****
 23 25 0 0 0
SMALL
GASTEIGER

@<TRIPOS>ATOM
      1 C          63.7115   83.8359   11.5280 C.2     1  UNL1        0.1983
      2 O          64.9724   83.1475   11.0967 O.2     1  UNL1       -0.2865
      3 C          62.9170   84.6351   10.5380 C.ar    1  UNL1        0.0402
      4 C          62.0062   85.7276   11.0144 C.ar    1  UNL1        0.0129
      5 C          61.2118   86.5267   10.0243 C.ar    1  UNL1        0.0688
      6 BR         60.3011   87.6192   10.5008 Br      1  UNL1       -0.0458
      7 C          61.3281   86.2334    8.5579 C.ar    1  UNL1        0.1459
      8 O          60.5337   87.0326    7.5679 O.3     1  UNL1       -0.5045
      9 C          62.2389   85.1409    8.0815 C.ar    1  UNL1        0.0688
     10 BR         62.3552   84.8476    6.6151 Br      1  UNL1       -0.0458
     11 C          63.0333   84.3418    9.0715 C.ar    1  UNL1        0.0129
     12 H          59.9648   87.7150    7.8655 H       1  UNL1        0.2922
     13 C          62.4934   82.5708   13.5432 C.ar    1  UNL1        0.1258
     14 O          62.2320   82.8815   14.9872 O.2     1  UNL1       -0.4577
     15 C          62.8221   84.2279   15.2858 C.ar    1  UNL1        0.1449
     16 C          62.8702   85.0464   16.5418 C.ar    1  UNL1        0.0375
     17 C          63.5444   86.3864   16.5383 C.ar    1  UNL1        0.0031
     18 C          64.1704   86.9077   15.2788 C.ar    1  UNL1        0.0002
     19 C          64.1223   86.0892   14.0228 C.ar    1  UNL1        0.0032
     20 C          63.4481   84.7493   14.0263 C.ar    1  UNL1        0.0403
     21 C          63.2450   83.7251   12.9493 C.ar    1  UNL1        0.0722
     22 C          62.3171   79.9807   13.4413 C.3     1  UNL1        0.0084
     23 C          62.0763   81.3245   12.8200 C.3     1  UNL1        0.0646
@<TRIPOS>BOND
     1    22    23    1
     2    23    13    1
     3    13    14   ar
     4    14    15   ar
     5    15    16   ar
     6    16    17   ar
     7    17    18   ar
     8    18    19   ar
     9    19    20   ar
    10    20    21   ar
    11    21     1    1
    12     1     2    2
    13     1     3    1
    14     3     4   ar
    15     4     5   ar
    16     5     6    1
    17     5     7   ar
    18     7     8    1
    19     7     9   ar
    20     9    10    1
    21     9    11   ar
    22    21    13   ar
    23    11     3   ar
    24    20    15   ar
    25     8    12    1
@<TRIPOS>MOLECULE
*****
 23 25 0 0 0
SMALL
GASTEIGER

@<TRIPOS>ATOM
      1 C          61.7891   86.5927   10.6356 C.2     1  UNL1        0.1983
      2 O          60.3677   86.6377   10.1589 O.2     1  UNL1       -0.2865
      3 C          62.4352   87.8297   11.1857 C.ar    1  UNL1        0.0402
      4 C          62.4903   89.0789   10.3571 C.ar    1  UNL1        0.0129
      5 C          63.1363   90.3158   10.9073 C.ar    1  UNL1        0.0688
      6 BR         63.1914   91.5650   10.0787 Br      1  UNL1       -0.0458
      7 C          63.7273   90.3036   12.2859 C.ar    1  UNL1        0.1459
      8 O          64.3733   91.5405   12.8359 O.3     1  UNL1       -0.5045
      9 C          63.6722   89.0543   13.1144 C.ar    1  UNL1        0.0688
     10 BR         64.2632   89.0421   14.4930 Br      1  UNL1       -0.0458
     11 C          63.0262   87.8175   12.5643 C.ar    1  UNL1        0.0129
     12 H          64.4077   92.3208   12.3184 H       1  UNL1        0.2922
     13 C          63.1698   84.7161    9.3252 C.ar    1  UNL1        0.1258
     14 O          63.8503   83.4363    9.7115 O.2     1  UNL1       -0.4577
     15 C          63.6657   83.2402   11.1871 C.ar    1  UNL1        0.1449
     16 C          64.1184   82.1563   12.1199 C.ar    1  UNL1        0.0375
     17 C          63.7766   82.2310   13.5785 C.ar    1  UNL1        0.0031
     18 C          62.9820   83.3895   14.1043 C.ar    1  UNL1        0.0002
     19 C          62.5293   84.4734   13.1715 C.ar    1  UNL1        0.0032
     20 C          62.8711   84.3987   11.7129 C.ar    1  UNL1        0.0403
     21 C          62.5646   85.3108   10.5622 C.ar    1  UNL1        0.0722
     22 C          62.0161   84.8788    7.0031 C.3     1  UNL1        0.0084
     23 C          63.1057   85.2987    7.9445 C.3     1  UNL1        0.0646
@<TRIPOS>BOND
     1    22    23    1
     2    23    13    1
     3    13    14   ar
     4    14    15   ar
     5    15    16   ar
     6    16    17   ar
     7    17    18   ar
     8    18    19   ar
     9    19    20   ar
    10    20    21   ar
    11    21     1    1
    12     1     2    2
    13     1     3    1
    14     3     4   ar
    15     4     5   ar
    16     5     6    1
    17     5     7   ar
    18     7     8    1
    19     7     9   ar
    20     9    10    1
    21     9    11   ar
    22    21    13   ar
    23    11     3   ar
    24    20    15   ar
    25     8    12    1
@<TRIPOS>MOLECULE
*****
 23 25 0 0 0
SMALL
GASTEIGER

@<TRIPOS>ATOM
      1 C          62.5311   87.2248   11.5008 C.2     1  UNL1        0.1983
      2 O          63.1800   88.5544   11.7476 O.2     1  UNL1       -0.2865
      3 C          62.8811   86.0480   12.3627 C.ar    1  UNL1        0.0402
      4 C          62.5580   84.6578   11.9010 C.ar    1  UNL1        0.0129
      5 C          62.9080   83.4812   12.7629 C.ar    1  UNL1        0.0688
      6 BR         62.5850   82.0910   12.3013 Br      1  UNL1       -0.0458
      7 C          63.5809   83.6946   14.0864 C.ar    1  UNL1        0.1459
      8 O          63.9308   82.5178   14.9482 O.3     1  UNL1       -0.5045
      9 C          63.9039   85.0847   14.5481 C.ar    1  UNL1        0.0688
     10 BR         64.5768   85.2981   15.8715 Br      1  UNL1       -0.0458
     11 C          63.5540   86.2614   13.6862 C.ar    1  UNL1        0.0129
     12 H          63.7290   81.6494   14.6599 H       1  UNL1        0.2922
     13 C          60.1687   87.6949   10.3418 C.ar    1  UNL1        0.1258
     14 O          59.5154   87.2771    9.0578 O.2     1  UNL1       -0.4577
     15 C          60.4752   86.3959    8.3146 C.ar    1  UNL1        0.1449
     16 C          60.3752   85.6927    6.9935 C.ar    1  UNL1        0.0375
     17 C          61.5217   84.8626    6.4971 C.ar    1  UNL1        0.0031
     18 C          62.7682   84.7357    7.3218 C.ar    1  UNL1        0.0002
     19 C          62.8682   85.4390    8.6429 C.ar    1  UNL1        0.0032
     20 C          61.7217   86.2691    9.1393 C.ar    1  UNL1        0.0403
     21 C          61.5323   87.0719   10.3922 C.ar    1  UNL1        0.0722
     22 C          59.8487   90.0530   11.3844 C.3     1  UNL1        0.0084
     23 C          59.5645   88.5802   11.3912 C.3     1  UNL1        0.0646
@<TRIPOS>BOND
     1    22    23    1
     2    23    13    1
     3    13    14   ar
     4    14    15   ar
     5    15    16   ar
     6    16    17   ar
     7    17    18   ar
     8    18    19   ar
     9    19    20   ar
    10    20    21   ar
    11    21     1    1
    12     1     2    2
    13     1     3    1
    14     3     4   ar
    15     4     5   ar
    16     5     6    1
    17     5     7   ar
    18     7     8    1
    19     7     9   ar
    20     9    10    1
    21     9    11   ar
    22    21    13   ar
    23    11     3   ar
    24    20    15   ar
    25     8    12    1
@<TRIPOS>MOLECULE
*****
 23 25 0 0 0
SMALL
GASTEIGER

@<TRIPOS>ATOM
      1 C          62.6762   85.2832   10.2876 C.2     1  UNL1        0.1983
      2 O          63.4047   84.8561    9.0480 O.2     1  UNL1       -0.2865
      3 C          62.6328   84.3766   11.4819 C.ar    1  UNL1        0.0402
      4 C          62.6777   82.8888   11.2962 C.ar    1  UNL1        0.0129
      5 C          62.6343   81.9824   12.4905 C.ar    1  UNL1        0.0688
      6 BR         62.6792   80.4946   12.3048 Br      1  UNL1       -0.0458
      7 C          62.5462   82.5636   13.8705 C.ar    1  UNL1        0.1459
      8 O          62.5028   81.6571   15.0647 O.3     1  UNL1       -0.5045
      9 C          62.5013   84.0514   14.0562 C.ar    1  UNL1        0.0688
     10 BR         62.4132   84.6326   15.4362 Br      1  UNL1       -0.0458
     11 C          62.5447   84.9578   12.8619 C.ar    1  UNL1        0.0129
     12 H          62.5308   80.7277   14.9487 H       1  UNL1        0.2922
     13 C          60.8333   87.0427    9.4795 C.ar    1  UNL1        0.1258
     14 O          60.4700   88.4477    9.8589 O.2     1  UNL1       -0.4577
     15 C          61.4031   88.8901   10.9469 C.ar    1  UNL1        0.1449
     16 C          61.5182   90.1771   11.7087 C.ar    1  UNL1        0.0375
     17 C          62.5733   90.3325   12.7634 C.ar    1  UNL1        0.0031
     18 C          63.5133   89.2009   13.0564 C.ar    1  UNL1        0.0002
     19 C          63.3982   87.9139   12.2946 C.ar    1  UNL1        0.0032
     20 C          62.3431   87.7585   11.2399 C.ar    1  UNL1        0.0403
     21 C          61.9910   86.6168   10.3330 C.ar    1  UNL1        0.0722
     22 C          59.0040   86.7725    7.6546 C.3     1  UNL1        0.0084
     23 C          60.1577   86.2099    8.4307 C.3     1  UNL1        0.0646
@<TRIPOS>BOND
     1    22    23    1
     2    23    13    1
     3    13    14   ar
     4    14    15   ar
     5    15    16   ar
     6    16    17   ar
     7    17    18   ar
     8    18    19   ar
     9    19    20   ar
    10    20    21   ar
    11    21     1    1
    12     1     2    2
    13     1     3    1
    14     3     4   ar
    15     4     5   ar
    16     5     6    1
    17     5     7   ar
    18     7     8    1
    19     7     9   ar
    20     9    10    1
    21     9    11   ar
    22    21    13   ar
    23    11     3   ar
    24    20    15   ar
    25     8    12    1
@<TRIPOS>MOLECULE
*****
 23 25 0 0 0
SMALL
GASTEIGER

@<TRIPOS>ATOM
      1 C          62.6838   85.2748   10.2894 C.2     1  UNL1        0.1983
      2 O          63.4087   84.8375    9.0512 O.2     1  UNL1       -0.2865
      3 C          62.6355   84.3738   11.4878 C.ar    1  UNL1        0.0402
      4 C          62.5466   84.9617   12.8650 C.ar    1  UNL1        0.0129
      5 C          62.4983   84.0608   14.0633 C.ar    1  UNL1        0.0688
      6 BR         62.4093   84.6486   15.4404 Br      1  UNL1       -0.0458
      7 C          62.5390   82.5720   13.8845 C.ar    1  UNL1        0.1459
      8 O          62.4907   81.6711   15.0828 O.3     1  UNL1       -0.5045
      9 C          62.6280   81.9842   12.5073 C.ar    1  UNL1        0.0688
     10 BR         62.6686   80.4954   12.3285 Br      1  UNL1       -0.0458
     11 C          62.6762   82.8851   11.3090 C.ar    1  UNL1        0.0129
     12 H          62.4351   82.0384   15.9431 H       1  UNL1        0.2922
     13 C          60.8617   87.0479    9.4643 C.ar    1  UNL1        0.1258
     14 O          60.5039   88.4548    9.8417 O.2     1  UNL1       -0.4577
     15 C          61.4284   88.8894   10.9402 C.ar    1  UNL1        0.1449
     16 C          61.5442   90.1747   11.7048 C.ar    1  UNL1        0.0375
     17 C          62.5891   90.3215   12.7709 C.ar    1  UNL1        0.0031
     18 C          63.5182   89.1831   13.0723 C.ar    1  UNL1        0.0002
     19 C          63.4024   87.8979   12.3076 C.ar    1  UNL1        0.0032
     20 C          62.3575   87.7511   11.2416 C.ar    1  UNL1        0.0403
     21 C          62.0072   86.6130   10.3294 C.ar    1  UNL1        0.0722
     22 C          58.9923   86.7577    7.6835 C.3     1  UNL1        0.0084
     23 C          60.1915   86.2211    8.4073 C.3     1  UNL1        0.0646
@<TRIPOS>BOND
     1    22    23    1
     2    23    13    1
     3    13    14   ar
     4    14    15   ar
     5    15    16   ar
     6    16    17   ar
     7    17    18   ar
     8    18    19   ar
     9    19    20   ar
    10    20    21   ar
    11    21     1    1
    12     1     2    2
    13     1     3    1
    14     3     4   ar
    15     4     5   ar
    16     5     6    1
    17     5     7   ar
    18     7     8    1
    19     7     9   ar
    20     9    10    1
    21     9    11   ar
    22    21    13   ar
    23    11     3   ar
    24    20    15   ar
    25     8    12    1
@<TRIPOS>MOLECULE
*****
 23 25 0 0 0
SMALL
GASTEIGER

@<TRIPOS>ATOM
      1 C          61.1856   88.9493   11.7248 C.2     1  UNL1        0.1983
      2 O          59.7968   89.1396   12.2585 O.2     1  UNL1       -0.2865
      3 C          62.2991   89.8358   12.1986 C.ar    1  UNL1        0.0402
      4 C          63.0672   90.6665   11.2137 C.ar    1  UNL1        0.0129
      5 C          64.1806   91.5529   11.6876 C.ar    1  UNL1        0.0688
      6 BR         64.9487   92.3836   10.7027 Br      1  UNL1       -0.0458
      7 C          64.5260   91.6086   13.1462 C.ar    1  UNL1        0.1459
      8 O          65.6394   92.4950   13.6200 O.3     1  UNL1       -0.5045
      9 C          63.7579   90.7778   14.1311 C.ar    1  UNL1        0.0688
     10 BR         64.1032   90.8335   15.5897 Br      1  UNL1       -0.0458
     11 C          62.6445   89.8915   13.6572 C.ar    1  UNL1        0.0129
     12 H          66.1192   93.0139   13.0048 H       1  UNL1        0.2922
     13 C          61.0622   87.8953    9.2715 C.ar    1  UNL1        0.1258
     14 O          61.5384   86.6210    8.6394 O.2     1  UNL1       -0.4577
     15 C          62.2314   85.8109    9.6946 C.ar    1  UNL1        0.1449
     16 C          62.8999   84.4687    9.6520 C.ar    1  UNL1        0.0375
     17 C          63.5205   83.9002   10.8935 C.ar    1  UNL1        0.0031
     18 C          63.4727   84.6738   12.1778 C.ar    1  UNL1        0.0002
     19 C          62.8042   86.0160   12.2204 C.ar    1  UNL1        0.0032
     20 C          62.1836   86.5845   10.9788 C.ar    1  UNL1        0.0403
     21 C          61.4610   87.8727   10.7173 C.ar    1  UNL1        0.0722
     22 C          59.4124   88.6834    7.4258 C.3     1  UNL1        0.0084
     23 C          60.3180   88.9984    8.5792 C.3     1  UNL1        0.0646
@<TRIPOS>BOND
     1    22    23    1
     2    23    13    1
     3    13    14   ar
     4    14    15   ar
     5    15    16   ar
     6    16    17   ar
     7    17    18   ar
     8    18    19   ar
     9    19    20   ar
    10    20    21   ar
    11    21     1    1
    12     1     2    2
    13     1     3    1
    14     3     4   ar
    15     4     5   ar
    16     5     6    1
    17     5     7   ar
    18     7     8    1
    19     7     9   ar
    20     9    10    1
    21     9    11   ar
    22    21    13   ar
    23    11     3   ar
    24    20    15   ar
    25     8    12    1
@<TRIPOS>MOLECULE
*****
 23 25 0 0 0
SMALL
GASTEIGER

@<TRIPOS>ATOM
      1 C          63.6212   86.0538   13.4432 C.2     1  UNL1        0.1983
      2 O          64.7286   86.5633   14.3171 O.2     1  UNL1       -0.2865
      3 C          63.0109   86.9502   12.4068 C.ar    1  UNL1        0.0402
      4 C          63.2916   88.4235   12.4302 C.ar    1  UNL1        0.0129
      5 C          62.6814   89.3198   11.3938 C.ar    1  UNL1        0.0688
      6 BR         62.9621   90.7931   11.4172 Br      1  UNL1       -0.0458
      7 C          61.7904   88.7428   10.3339 C.ar    1  UNL1        0.1459
      8 O          61.1802   89.6392    9.2975 O.3     1  UNL1       -0.5045
      9 C          61.5097   87.2695   10.3105 C.ar    1  UNL1        0.0688
     10 BR         60.6188   86.6926    9.2506 Br      1  UNL1       -0.0458
     11 C          62.1200   86.3733   11.3469 C.ar    1  UNL1        0.0129
     12 H          61.3556   90.5595    9.3122 H       1  UNL1        0.2922
     13 C          62.3966   84.1024   14.7987 C.ar    1  UNL1        0.1258
     14 O          62.0898   82.6582   14.5339 O.2     1  UNL1       -0.4577
     15 C          62.6274   82.3112   13.1772 C.ar    1  UNL1        0.1449
     16 C          62.6176   81.0344   12.3902 C.ar    1  UNL1        0.0375
     17 C          63.2469   80.9873   11.0294 C.ar    1  UNL1        0.0031
     18 C          63.8860   82.2172   10.4557 C.ar    1  UNL1        0.0002
     19 C          63.8958   83.4940   11.2428 C.ar    1  UNL1        0.0032
     20 C          63.2665   83.5410   12.6035 C.ar    1  UNL1        0.0403
     21 C          63.1239   84.6480   13.6057 C.ar    1  UNL1        0.0722
     22 C          63.1071   85.5772   16.8162 C.3     1  UNL1        0.0084
     23 C          62.0389   84.8667   16.0388 C.3     1  UNL1        0.0646
@<TRIPOS>BOND
     1    22    23    1
     2    23    13    1
     3    13    14   ar
     4    14    15   ar
     5    15    16   ar
     6    16    17   ar
     7    17    18   ar
     8    18    19   ar
     9    19    20   ar
    10    20    21   ar
    11    21     1    1
    12     1     2    2
    13     1     3    1
    14     3     4   ar
    15     4     5   ar
    16     5     6    1
    17     5     7   ar
    18     7     8    1
    19     7     9   ar
    20     9    10    1
    21     9    11   ar
    22    21    13   ar
    23    11     3   ar
    24    20    15   ar
    25     8    12    1
@<TRIPOS>MOLECULE
*****
 23 25 0 0 0
SMALL
GASTEIGER

@<TRIPOS>ATOM
      1 C          62.8216   85.2858   10.4943 C.2     1  UNL1        0.1983
      2 O          63.4985   84.6213    9.3324 O.2     1  UNL1       -0.2865
      3 C          62.8438   84.6368   11.8466 C.ar    1  UNL1        0.0402
      4 C          62.3533   83.2288   12.0109 C.ar    1  UNL1        0.0129
      5 C          62.3755   82.5799   13.3630 C.ar    1  UNL1        0.0688
      6 BR         61.8850   81.1720   13.5273 Br      1  UNL1       -0.0458
      7 C          62.8882   83.3389   14.5509 C.ar    1  UNL1        0.1459
      8 O          62.9104   82.6900   15.9030 O.3     1  UNL1       -0.5045
      9 C          63.3788   84.7469   14.3866 C.ar    1  UNL1        0.0688
     10 BR         63.8915   85.5059   15.5744 Br      1  UNL1       -0.0458
     11 C          63.3565   85.3958   13.0344 C.ar    1  UNL1        0.0129
     12 H          62.6040   81.8105   16.0057 H       1  UNL1        0.2922
     13 C          62.3319   87.8366   11.1258 C.ar    1  UNL1        0.1258
     14 O          61.4301   88.9079   10.5884 O.2     1  UNL1       -0.4577
     15 C          60.6632   88.3327    9.4347 C.ar    1  UNL1        0.1449
     16 C          59.6306   88.9239    8.5214 C.ar    1  UNL1        0.0375
     17 C          59.0260   88.0882    7.4324 C.ar    1  UNL1        0.0031
     18 C          59.4539   86.6613    7.2567 C.ar    1  UNL1        0.0002
     19 C          60.4865   86.0702    8.1700 C.ar    1  UNL1        0.0032
     20 C          61.0912   86.9059    9.2590 C.ar    1  UNL1        0.0403
     21 C          62.1225   86.5992   10.3042 C.ar    1  UNL1        0.0722
     22 C          63.5608   89.3335   12.8576 C.3     1  UNL1        0.0084
     23 C          63.2773   87.9777   12.2819 C.3     1  UNL1        0.0646
@<TRIPOS>BOND
     1    22    23    1
     2    23    13    1
     3    13    14   ar
     4    14    15   ar
     5    15    16   ar
     6    16    17   ar
     7    17    18   ar
     8    18    19   ar
     9    19    20   ar
    10    20    21   ar
    11    21     1    1
    12     1     2    2
    13     1     3    1
    14     3     4   ar
    15     4     5   ar
    16     5     6    1
    17     5     7   ar
    18     7     8    1
    19     7     9   ar
    20     9    10    1
    21     9    11   ar
    22    21    13   ar
    23    11     3   ar
    24    20    15   ar
    25     8    12    1
