@<TRIPOS>MOLECULE
*****
 33 36 0 0 0
SMALL
GASTEIGER

@<TRIPOS>ATOM
      1 C          62.5052   91.1502    9.9044 C.3     1  UNL1        0.0518
      2 C          63.1355   90.4964   11.0984 C.ar    1  UNL1        0.0568
      3 N          62.7938   89.0773   11.4439 N.ar    1  UNL1       -0.2456
      4 C          63.4240   88.4236   12.6378 C.ar    1  UNL1        0.1319
      5 C          64.3960   89.1888   13.4861 C.ar    1  UNL1        0.0196
      6 C          64.7378   90.6079   13.1405 C.ar    1  UNL1       -0.0015
      7 C          64.1075   91.2616   11.9466 C.ar    1  UNL1        0.0068
      8 C          64.8548   88.2872   14.5936 C.3     1  UNL1        0.1226
      9 N          64.1663   86.9646   14.4297 N.am    1  UNL1       -0.2623
     10 C          63.2820   87.0489   13.2210 C.2     1  UNL1        0.2671
     11 O          62.4091   85.9512   12.6890 O.2     1  UNL1       -0.2682
     12 C          65.7098   91.3733   13.9888 C.ar    1  UNL1        0.0102
     13 C          67.0664   91.7177   13.4495 C.ar    1  UNL1        0.0017
     14 C          68.0385   92.4831   14.2977 C.ar    1  UNL1        0.0114
     15 C          67.6538   92.9039   15.6851 C.ar    1  UNL1        0.0585
     16 CL         68.6258   93.6692   16.5332 Cl      1  UNL1       -0.0822
     17 C          66.2971   92.5594   16.2243 C.ar    1  UNL1        0.0228
     18 C          65.3251   91.7941   15.3762 C.ar    1  UNL1        0.0585
     19 CL         63.9684   91.4496   15.9154 Cl      1  UNL1       -0.0822
     20 C          64.4493   92.6808   11.6009 C.3     1  UNL1        0.0934
     21 N          65.3825   92.9717   10.4632 N.3     1  UNL1       -0.3174
     22 H          66.3136   92.6221   10.6894 H       1  UNL1        0.1192
     23 H          65.4259   93.9789   10.3081 H       1  UNL1        0.1192
     24 C          64.3329   85.7678   15.3186 C.3     1  UNL1        0.1798
     25 C          63.1813   84.8327   15.5409 C.2     1  UNL1        0.2460
     26 O          62.1433   85.1539   16.5750 O.2     1  UNL1       -0.2730
     27 N          63.0677   83.5763   14.7293 N.am    1  UNL1       -0.2753
     28 C          64.1058   83.2551   13.6953 C.3     1  UNL1        0.1108
     29 C          63.9923   81.9988   12.8836 C.3     1  UNL1        0.0939
     30 N          62.8407   81.0638   13.1061 N.3     1  UNL1       -0.2686
     31 C          62.7273   79.8074   12.2944 C.3     1  UNL1        0.0897
     32 C          61.8027   81.3850   14.1401 C.3     1  UNL1        0.0939
     33 C          61.9162   82.6413   14.9518 C.3     1  UNL1        0.1108
@<TRIPOS>BOND
     1     1     2    1
     2     2     3   ar
     3     3     4   ar
     4     4     5   ar
     5     5     6   ar
     6     6    12    1
     7    12    13   ar
     8    13    14   ar
     9    14    15   ar
    10    15    16    1
    11    15    17   ar
    12    17    18   ar
    13    18    19    1
    14     6     7   ar
    15     7    20    1
    16    20    21    1
    17     5     8    1
    18     8     9    1
    19     9    24    1
    20    24    25    1
    21    25    26    2
    22    25    27   am
    23    27    28    1
    24    28    29    1
    25    29    30    1
    26    30    31    1
    27    30    32    1
    28    32    33    1
    29     9    10   am
    30    10    11    2
    31     7     2   ar
    32    33    27    1
    33    10     4    1
    34    18    12   ar
    35    21    22    1
    36    21    23    1
@<TRIPOS>MOLECULE
*****
 33 36 0 0 0
SMALL
GASTEIGER

@<TRIPOS>ATOM
      1 C          63.9269   83.3292   14.7976 C.3     1  UNL1        0.0518
      2 C          63.6665   84.5633   13.9856 C.ar    1  UNL1        0.0568
      3 N          63.8644   85.9187   14.5969 N.ar    1  UNL1       -0.2456
      4 C          63.6040   87.1528   13.7850 C.ar    1  UNL1        0.1319
      5 C          63.1457   87.0316   12.3619 C.ar    1  UNL1        0.0196
      6 C          62.9477   85.6761   11.7507 C.ar    1  UNL1       -0.0015
      7 C          63.2082   84.4420   12.5626 C.ar    1  UNL1        0.0068
      8 C          62.9697   88.4160   11.8120 C.3     1  UNL1        0.1226
      9 N          63.3193   89.3929   12.8952 N.am    1  UNL1       -0.2623
     10 C          63.7113   88.6122   14.1146 C.2     1  UNL1        0.2671
     11 O          64.1360   89.1897   15.4323 O.2     1  UNL1       -0.2682
     12 C          62.4894   85.5548   10.3275 C.ar    1  UNL1        0.0102
     13 C          63.3382   84.8298    9.3255 C.ar    1  UNL1        0.0017
     14 C          62.8800   84.7084    7.9024 C.ar    1  UNL1        0.0114
     15 C          61.5729   85.3119    7.4814 C.ar    1  UNL1        0.0585
     16 CL         61.1147   85.1905    6.0582 Cl      1  UNL1       -0.0822
     17 C          60.7241   86.0369    8.4833 C.ar    1  UNL1        0.0228
     18 C          61.1824   86.1583    9.9065 C.ar    1  UNL1        0.0585
     19 CL         60.3336   86.8832   10.9085 Cl      1  UNL1       -0.0822
     20 C          63.0103   83.0865   11.9513 C.3     1  UNL1        0.0934
     21 N          64.1960   82.2893   11.4946 N.3     1  UNL1       -0.3174
     22 H          64.6449   82.7655   10.7122 H       1  UNL1        0.1192
     23 H          63.8890   81.3630   11.1979 H       1  UNL1        0.1192
     24 C          63.2832   90.8880   12.7794 C.3     1  UNL1        0.1798
     25 C          64.4865   91.6307   12.2790 C.2     1  UNL1        0.2460
     26 O          64.6648   91.8655   10.8082 O.2     1  UNL1       -0.2730
     27 N          65.5115   92.1387   13.2492 N.am    1  UNL1       -0.2753
     28 C          65.3332   91.9039   14.7199 C.3     1  UNL1        0.1108
     29 C          66.3581   92.4119   15.6902 C.3     1  UNL1        0.0939
     30 N          67.5614   93.1546   15.1897 N.3     1  UNL1       -0.2686
     31 C          68.5863   93.6626   16.1600 C.3     1  UNL1        0.0897
     32 C          67.7397   93.3894   13.7189 C.3     1  UNL1        0.0939
     33 C          66.7147   92.8814   12.7487 C.3     1  UNL1        0.1108
@<TRIPOS>BOND
     1     1     2    1
     2     2     3   ar
     3     3     4   ar
     4     4     5   ar
     5     5     6   ar
     6     6    12    1
     7    12    13   ar
     8    13    14   ar
     9    14    15   ar
    10    15    16    1
    11    15    17   ar
    12    17    18   ar
    13    18    19    1
    14     6     7   ar
    15     7    20    1
    16    20    21    1
    17     5     8    1
    18     8     9    1
    19     9    24    1
    20    24    25    1
    21    25    26    2
    22    25    27   am
    23    27    28    1
    24    28    29    1
    25    29    30    1
    26    30    31    1
    27    30    32    1
    28    32    33    1
    29     9    10   am
    30    10    11    2
    31     7     2   ar
    32    33    27    1
    33    10     4    1
    34    18    12   ar
    35    21    22    1
    36    21    23    1
@<TRIPOS>MOLECULE
*****
 33 36 0 0 0
SMALL
GASTEIGER

@<TRIPOS>ATOM
      1 C          64.0004   83.4008   14.9716 C.3     1  UNL1        0.0518
      2 C          63.7290   84.6305   14.1566 C.ar    1  UNL1        0.0568
      3 N          63.9175   85.9892   14.7636 N.ar    1  UNL1       -0.2456
      4 C          63.6461   87.2189   13.9487 C.ar    1  UNL1        0.1319
      5 C          63.1862   87.0900   12.5268 C.ar    1  UNL1        0.0196
      6 C          62.9977   85.7313   11.9197 C.ar    1  UNL1       -0.0015
      7 C          63.2691   84.5016   12.7348 C.ar    1  UNL1        0.0068
      8 C          62.9985   88.4714   11.9732 C.3     1  UNL1        0.1226
      9 N          63.3424   89.4541   13.0530 N.am    1  UNL1       -0.2623
     10 C          63.7427   88.6801   14.2739 C.2     1  UNL1        0.2671
     11 O          64.1652   89.2645   15.5891 O.2     1  UNL1       -0.2682
     12 C          62.5378   85.6023   10.4978 C.ar    1  UNL1        0.0102
     13 C          63.3666   84.8387    9.5079 C.ar    1  UNL1        0.0017
     14 C          62.9068   84.7096    8.0860 C.ar    1  UNL1        0.0114
     15 C          61.6181   85.3442    7.6540 C.ar    1  UNL1        0.0585
     16 CL         61.1583   85.2151    6.2321 Cl      1  UNL1       -0.0822
     17 C          60.7893   86.1078    8.6439 C.ar    1  UNL1        0.0228
     18 C          61.2491   86.2369   10.0658 C.ar    1  UNL1        0.0585
     19 CL         60.4203   87.0005   11.0557 Cl      1  UNL1       -0.0822
     20 C          63.0806   83.1428   12.1277 C.3     1  UNL1        0.0934
     21 N          64.2737   82.2903   11.8121 N.3     1  UNL1       -0.3174
     22 H          64.8218   82.7324   11.0741 H       1  UNL1        0.1192
     23 H          63.9616   81.3710   11.4994 H       1  UNL1        0.1192
     24 C          63.2946   90.9485   12.9329 C.3     1  UNL1        0.1798
     25 C          64.4700   91.7737   13.3658 C.2     1  UNL1        0.2460
     26 O          64.8123   91.8855   14.8219 O.2     1  UNL1       -0.2730
     27 N          65.3031   92.4872   12.3426 N.am    1  UNL1       -0.2753
     28 C          64.9608   92.3754   10.8865 C.3     1  UNL1        0.1108
     29 C          65.7939   93.0889    9.8632 C.3     1  UNL1        0.0939
     30 N          66.9692   93.9140   10.2962 N.3     1  UNL1       -0.2686
     31 C          67.8023   94.6275    9.2729 C.3     1  UNL1        0.0897
     32 C          67.3116   94.0258   11.7523 C.3     1  UNL1        0.0939
     33 C          66.4785   93.3124   12.7755 C.3     1  UNL1        0.1108
@<TRIPOS>BOND
     1     1     2    1
     2     2     3   ar
     3     3     4   ar
     4     4     5   ar
     5     5     6   ar
     6     6    12    1
     7    12    13   ar
     8    13    14   ar
     9    14    15   ar
    10    15    16    1
    11    15    17   ar
    12    17    18   ar
    13    18    19    1
    14     6     7   ar
    15     7    20    1
    16    20    21    1
    17     5     8    1
    18     8     9    1
    19     9    24    1
    20    24    25    1
    21    25    26    2
    22    25    27   am
    23    27    28    1
    24    28    29    1
    25    29    30    1
    26    30    31    1
    27    30    32    1
    28    32    33    1
    29     9    10   am
    30    10    11    2
    31     7     2   ar
    32    33    27    1
    33    10     4    1
    34    18    12   ar
    35    21    22    1
    36    21    23    1
@<TRIPOS>MOLECULE
*****
 33 36 0 0 0
SMALL
GASTEIGER

@<TRIPOS>ATOM
      1 C          58.7462   87.7127    7.2013 C.3     1  UNL1        0.0518
      2 C          59.7729   87.7832    8.2927 C.ar    1  UNL1        0.0568
      3 N          60.0596   89.0909    8.9692 N.ar    1  UNL1       -0.2456
      4 C          61.0863   89.1615   10.0605 C.ar    1  UNL1        0.1319
      5 C          61.8262   87.9244   10.4753 C.ar    1  UNL1        0.0196
      6 C          61.5395   86.6167    9.7988 C.ar    1  UNL1       -0.0015
      7 C          60.5128   86.5462    8.7074 C.ar    1  UNL1        0.0068
      8 C          62.7760   88.2989   11.5742 C.3     1  UNL1        0.1226
      9 N          62.6231   89.7674   11.8385 N.am    1  UNL1       -0.2623
     10 C          61.5788   90.3006   10.9030 C.2     1  UNL1        0.2671
     11 O          61.1095   91.7231   10.8240 O.2     1  UNL1       -0.2682
     12 C          62.2794   85.3795   10.2136 C.ar    1  UNL1        0.0102
     13 C          62.0077   84.7560   11.5505 C.ar    1  UNL1        0.0017
     14 C          62.7476   83.5188   11.9654 C.ar    1  UNL1        0.0114
     15 C          63.7590   82.9052   11.0432 C.ar    1  UNL1        0.0585
     16 CL         64.4988   81.6681   11.4580 Cl      1  UNL1       -0.0822
     17 C          64.0306   83.5287    9.7062 C.ar    1  UNL1        0.0228
     18 C          63.2908   84.7659    9.2914 C.ar    1  UNL1        0.0585
     19 CL         63.5624   85.3894    7.9544 Cl      1  UNL1       -0.0822
     20 C          60.2260   85.2384    8.0309 C.3     1  UNL1        0.0934
     21 N          60.6870   85.0056    6.6226 N.3     1  UNL1       -0.3174
     22 H          60.1897   85.6359    5.9935 H       1  UNL1        0.1192
     23 H          60.4954   84.0395    6.3574 H       1  UNL1        0.1192
     24 C          63.3814   90.5632   12.8592 C.3     1  UNL1        0.1798
     25 C          64.3788   91.5929   12.4177 C.2     1  UNL1        0.2460
     26 O          64.3561   92.1025   11.0071 O.2     1  UNL1       -0.2730
     27 N          65.3989   92.1130   13.3867 N.am    1  UNL1       -0.2753
     28 C          65.4215   91.6035   14.7973 C.3     1  UNL1        0.1108
     29 C          66.4416   92.1235   15.7663 C.3     1  UNL1        0.0939
     30 N          67.4389   93.1532   15.3247 N.3     1  UNL1       -0.2686
     31 C          68.4589   93.6733   16.2937 C.3     1  UNL1        0.0897
     32 C          67.4162   93.6628   13.9141 C.3     1  UNL1        0.0939
     33 C          66.3962   93.1427   12.9450 C.3     1  UNL1        0.1108
@<TRIPOS>BOND
     1     1     2    1
     2     2     3   ar
     3     3     4   ar
     4     4     5   ar
     5     5     6   ar
     6     6    12    1
     7    12    13   ar
     8    13    14   ar
     9    14    15   ar
    10    15    16    1
    11    15    17   ar
    12    17    18   ar
    13    18    19    1
    14     6     7   ar
    15     7    20    1
    16    20    21    1
    17     5     8    1
    18     8     9    1
    19     9    24    1
    20    24    25    1
    21    25    26    2
    22    25    27   am
    23    27    28    1
    24    28    29    1
    25    29    30    1
    26    30    31    1
    27    30    32    1
    28    32    33    1
    29     9    10   am
    30    10    11    2
    31     7     2   ar
    32    33    27    1
    33    10     4    1
    34    18    12   ar
    35    21    22    1
    36    21    23    1
@<TRIPOS>MOLECULE
*****
 33 36 0 0 0
SMALL
GASTEIGER

@<TRIPOS>ATOM
      1 C          63.1284   82.6859   14.9421 C.3     1  UNL1        0.0518
      2 C          63.1422   83.9779   14.1800 C.ar    1  UNL1        0.0568
      3 N          63.5441   85.2494   14.8668 N.ar    1  UNL1       -0.2456
      4 C          63.5580   86.5413   14.1048 C.ar    1  UNL1        0.1319
      5 C          63.1700   86.5618   12.6560 C.ar    1  UNL1        0.0196
      6 C          62.7681   85.2903   11.9692 C.ar    1  UNL1       -0.0015
      7 C          62.7542   83.9983   12.7313 C.ar    1  UNL1        0.0068
      8 C          63.2783   87.9757   12.1670 C.3     1  UNL1        0.1226
      9 N          63.7333   88.8291   13.3136 N.am    1  UNL1       -0.2623
     10 C          63.9062   87.9426   14.5113 C.2     1  UNL1        0.2671
     11 O          64.3494   88.3806   15.8757 O.2     1  UNL1       -0.2682
     12 C          62.3800   85.3107   10.5204 C.ar    1  UNL1        0.0102
     13 C          61.1273   86.0141   10.0894 C.ar    1  UNL1        0.0017
     14 C          60.7392   86.0345    8.6406 C.ar    1  UNL1        0.0114
     15 C          61.6038   85.3515    7.6229 C.ar    1  UNL1        0.0585
     16 CL         61.2157   85.3719    6.1741 Cl      1  UNL1       -0.0822
     17 C          62.8566   84.6480    8.0539 C.ar    1  UNL1        0.0228
     18 C          63.2447   84.6276    9.5027 C.ar    1  UNL1        0.0585
     19 CL         64.4974   83.9242    9.9337 Cl      1  UNL1       -0.0822
     20 C          62.3523   82.7267   12.0444 C.3     1  UNL1        0.0934
     21 N          63.3077   81.5718   11.9856 N.3     1  UNL1       -0.3174
     22 H          64.1141   81.8263   11.4153 H       1  UNL1        0.1192
     23 H          62.8403   80.7647   11.5726 H       1  UNL1        0.1192
     24 C          63.9733   90.3091   13.2702 C.3     1  UNL1        0.1798
     25 C          64.2531   91.0610   14.5376 C.2     1  UNL1        0.2460
     26 O          63.1792   91.2093   15.5743 O.2     1  UNL1       -0.2730
     27 N          65.6068   91.6646   14.7685 N.am    1  UNL1       -0.2753
     28 C          66.6807   91.5163   13.7318 C.3     1  UNL1        0.1108
     29 C          68.0344   92.1199   13.9625 C.3     1  UNL1        0.0939
     30 N          68.3141   92.8717   15.2299 N.3     1  UNL1       -0.2686
     31 C          69.6678   93.4753   15.4607 C.3     1  UNL1        0.0897
     32 C          67.2402   93.0201   16.2666 C.3     1  UNL1        0.0939
     33 C          65.8865   92.4165   16.0359 C.3     1  UNL1        0.1108
@<TRIPOS>BOND
     1     1     2    1
     2     2     3   ar
     3     3     4   ar
     4     4     5   ar
     5     5     6   ar
     6     6    12    1
     7    12    13   ar
     8    13    14   ar
     9    14    15   ar
    10    15    16    1
    11    15    17   ar
    12    17    18   ar
    13    18    19    1
    14     6     7   ar
    15     7    20    1
    16    20    21    1
    17     5     8    1
    18     8     9    1
    19     9    24    1
    20    24    25    1
    21    25    26    2
    22    25    27   am
    23    27    28    1
    24    28    29    1
    25    29    30    1
    26    30    31    1
    27    30    32    1
    28    32    33    1
    29     9    10   am
    30    10    11    2
    31     7     2   ar
    32    33    27    1
    33    10     4    1
    34    18    12   ar
    35    21    22    1
    36    21    23    1
@<TRIPOS>MOLECULE
*****
 33 36 0 0 0
SMALL
GASTEIGER

@<TRIPOS>ATOM
      1 C          59.6768   89.0033    8.3743 C.3     1  UNL1        0.0518
      2 C          60.6850   88.7306    9.4509 C.ar    1  UNL1        0.0568
      3 N          61.3150   89.8707   10.1947 N.ar    1  UNL1       -0.2456
      4 C          62.3232   89.5980   11.2713 C.ar    1  UNL1        0.1319
      5 C          62.7015   88.1852   11.6041 C.ar    1  UNL1        0.0196
      6 C          62.0715   87.0450   10.8604 C.ar    1  UNL1       -0.0015
      7 C          61.0633   87.3178    9.7837 C.ar    1  UNL1        0.0068
      8 C          63.7179   88.2248   12.7066 C.3     1  UNL1        0.1226
      9 N          63.9678   89.6622   13.0550 N.am    1  UNL1       -0.2623
     10 C          63.1059   90.5109   12.1680 C.2     1  UNL1        0.2671
     11 O          63.0385   92.0094   12.1762 O.2     1  UNL1       -0.2682
     12 C          62.4497   85.6321   11.1932 C.ar    1  UNL1        0.0102
     13 C          62.1504   85.0763   12.5539 C.ar    1  UNL1        0.0017
     14 C          62.5286   83.6635   12.8868 C.ar    1  UNL1        0.0114
     15 C          63.2060   82.8065   11.8589 C.ar    1  UNL1        0.0585
     16 CL         63.5842   81.3936   12.1918 Cl      1  UNL1       -0.0822
     17 C          63.5053   83.3622   10.4982 C.ar    1  UNL1        0.0228
     18 C          63.1272   84.7751   10.1653 C.ar    1  UNL1        0.0585
     19 CL         63.4265   85.3309    8.8047 Cl      1  UNL1       -0.0822
     20 C          60.4332   86.1776    9.0399 C.3     1  UNL1        0.0934
     21 N          60.6237   86.0528    7.5573 N.3     1  UNL1       -0.3174
     22 H          60.1670   86.8353    7.0888 H       1  UNL1        0.1192
     23 H          60.2132   85.1767    7.2343 H       1  UNL1        0.1192
     24 C          64.9136   90.1631   14.1060 C.3     1  UNL1        0.1798
     25 C          65.1696   91.6345   14.2449 C.2     1  UNL1        0.2460
     26 O          64.8307   92.3371   15.5261 O.2     1  UNL1       -0.2730
     27 N          65.7645   92.4035   13.1025 N.am    1  UNL1       -0.2753
     28 C          66.1034   91.7009   11.8213 C.3     1  UNL1        0.1108
     29 C          66.6983   92.4697   10.6790 C.3     1  UNL1        0.0939
     30 N          66.9543   93.9411   10.8179 N.3     1  UNL1       -0.2686
     31 C          67.5492   94.7100    9.6756 C.3     1  UNL1        0.0897
     32 C          66.6154   94.6437   12.0991 C.3     1  UNL1        0.0939
     33 C          66.0205   93.8749   13.2415 C.3     1  UNL1        0.1108
@<TRIPOS>BOND
     1     1     2    1
     2     2     3   ar
     3     3     4   ar
     4     4     5   ar
     5     5     6   ar
     6     6    12    1
     7    12    13   ar
     8    13    14   ar
     9    14    15   ar
    10    15    16    1
    11    15    17   ar
    12    17    18   ar
    13    18    19    1
    14     6     7   ar
    15     7    20    1
    16    20    21    1
    17     5     8    1
    18     8     9    1
    19     9    24    1
    20    24    25    1
    21    25    26    2
    22    25    27   am
    23    27    28    1
    24    28    29    1
    25    29    30    1
    26    30    31    1
    27    30    32    1
    28    32    33    1
    29     9    10   am
    30    10    11    2
    31     7     2   ar
    32    33    27    1
    33    10     4    1
    34    18    12   ar
    35    21    22    1
    36    21    23    1
@<TRIPOS>MOLECULE
*****
 33 36 0 0 0
SMALL
GASTEIGER

@<TRIPOS>ATOM
      1 C          60.7444   89.4210    9.3832 C.3     1  UNL1        0.0518
      2 C          61.6159   88.8890   10.4822 C.ar    1  UNL1        0.0568
      3 N          61.6757   87.4133   10.7440 N.ar    1  UNL1       -0.2456
      4 C          62.5471   86.8813   11.8429 C.ar    1  UNL1        0.1319
      5 C          63.3588   87.8250   12.6799 C.ar    1  UNL1        0.0196
      6 C          63.2990   89.3007   12.4181 C.ar    1  UNL1       -0.0015
      7 C          62.4275   89.8327   11.3191 C.ar    1  UNL1        0.0068
      8 C          64.1210   87.0142   13.6857 C.3     1  UNL1        0.1226
      9 N          63.7804   85.5694   13.4704 N.am    1  UNL1       -0.2623
     10 C          62.8077   85.4872   12.3314 C.2     1  UNL1        0.2671
     11 O          62.2019   84.2314   11.7782 O.2     1  UNL1       -0.2682
     12 C          64.1107   90.2445   13.2550 C.ar    1  UNL1        0.0102
     13 C          65.2389   91.0152   12.6360 C.ar    1  UNL1        0.0017
     14 C          66.0505   91.9591   13.4728 C.ar    1  UNL1        0.0114
     15 C          65.7340   92.1321   14.9288 C.ar    1  UNL1        0.0585
     16 CL         66.5457   93.0759   15.7657 Cl      1  UNL1       -0.0822
     17 C          64.6058   91.3614   15.5478 C.ar    1  UNL1        0.0228
     18 C          63.7942   90.4176   14.7110 C.ar    1  UNL1        0.0585
     19 CL         62.6660   89.6469   15.3300 Cl      1  UNL1       -0.0822
     20 C          62.3677   91.3085   11.0572 C.3     1  UNL1        0.0934
     21 N          63.1872   91.9081    9.9532 N.3     1  UNL1       -0.3174
     22 H          64.1782   91.8143   10.1759 H       1  UNL1        0.1192
     23 H          62.9531   92.8959    9.8539 H       1  UNL1        0.1192
     24 C          64.3180   84.4102   14.2560 C.3     1  UNL1        0.1798
     25 C          63.4186   83.2637   14.6118 C.2     1  UNL1        0.2460
     26 O          62.7088   83.2494   15.9332 O.2     1  UNL1       -0.2730
     27 N          63.2290   82.1314   13.6464 N.am    1  UNL1       -0.2753
     28 C          63.9388   82.1457   12.3251 C.3     1  UNL1        0.1108
     29 C          63.7492   81.0134   11.3596 C.3     1  UNL1        0.0939
     30 N          62.8498   79.8670   11.7155 N.3     1  UNL1       -0.2686
     31 C          62.6602   78.7348   10.7500 C.3     1  UNL1        0.0897
     32 C          62.1400   79.8528   13.0369 C.3     1  UNL1        0.0939
     33 C          62.3295   80.9850   14.0023 C.3     1  UNL1        0.1108
@<TRIPOS>BOND
     1     1     2    1
     2     2     3   ar
     3     3     4   ar
     4     4     5   ar
     5     5     6   ar
     6     6    12    1
     7    12    13   ar
     8    13    14   ar
     9    14    15   ar
    10    15    16    1
    11    15    17   ar
    12    17    18   ar
    13    18    19    1
    14     6     7   ar
    15     7    20    1
    16    20    21    1
    17     5     8    1
    18     8     9    1
    19     9    24    1
    20    24    25    1
    21    25    26    2
    22    25    27   am
    23    27    28    1
    24    28    29    1
    25    29    30    1
    26    30    31    1
    27    30    32    1
    28    32    33    1
    29     9    10   am
    30    10    11    2
    31     7     2   ar
    32    33    27    1
    33    10     4    1
    34    18    12   ar
    35    21    22    1
    36    21    23    1
@<TRIPOS>MOLECULE
*****
 33 36 0 0 0
SMALL
GASTEIGER

@<TRIPOS>ATOM
      1 C          59.3813   88.7119    7.4163 C.3     1  UNL1        0.0518
      2 C          60.3709   88.5470    8.5314 C.ar    1  UNL1        0.0568
      3 N          60.8714   89.7503    9.2740 N.ar    1  UNL1       -0.2456
      4 C          61.8610   89.5855   10.3891 C.ar    1  UNL1        0.1319
      5 C          62.3502   88.2172   10.7616 C.ar    1  UNL1        0.0196
      6 C          61.8497   87.0139   10.0190 C.ar    1  UNL1       -0.0015
      7 C          60.8600   87.1788    8.9039 C.ar    1  UNL1        0.0068
      8 C          63.3195   88.3646   11.8968 C.3     1  UNL1        0.1226
      9 N          63.4295   89.8239   12.2258 N.am    1  UNL1       -0.2623
     10 C          62.5281   90.5785   11.2940 C.2     1  UNL1        0.2671
     11 O          62.3289   92.0650   11.2712 O.2     1  UNL1       -0.2682
     12 C          62.3387   85.6456   10.3915 C.ar    1  UNL1        0.0102
     13 C          62.0121   85.0736   11.7391 C.ar    1  UNL1        0.0017
     14 C          62.5011   83.7053   12.1117 C.ar    1  UNL1        0.0114
     15 C          63.3168   82.9092   11.1365 C.ar    1  UNL1        0.0585
     16 CL         63.8058   81.5410   11.5091 Cl      1  UNL1       -0.0822
     17 C          63.6434   83.4813    9.7889 C.ar    1  UNL1        0.0228
     18 C          63.1543   84.8495    9.4164 C.ar    1  UNL1        0.0585
     19 CL         63.4809   85.4215    8.0688 Cl      1  UNL1       -0.0822
     20 C          60.3594   85.9754    8.1613 C.3     1  UNL1        0.0934
     21 N          59.0082   86.0041    7.5106 N.3     1  UNL1       -0.3174
     22 H          58.2867   86.0741    8.2282 H       1  UNL1        0.1192
     23 H          58.8714   85.1480    6.9733 H       1  UNL1        0.1192
     24 C          64.2898   90.4235   13.2984 C.3     1  UNL1        0.1798
     25 C          63.8445   90.3780   14.7300 C.2     1  UNL1        0.2460
     26 O          63.6087   91.6536   15.4830 O.2     1  UNL1       -0.2730
     27 N          63.6348   89.0568   15.4087 N.am    1  UNL1       -0.2753
     28 C          63.8706   87.7811   14.6556 C.3     1  UNL1        0.1108
     29 C          63.6610   86.4599   15.3342 C.3     1  UNL1        0.0939
     30 N          63.2156   86.4145   16.7658 N.3     1  UNL1       -0.2686
     31 C          63.0060   85.0933   17.4444 C.3     1  UNL1        0.0897
     32 C          62.9799   87.6901   17.5189 C.3     1  UNL1        0.0939
     33 C          63.1895   89.0113   16.8403 C.3     1  UNL1        0.1108
@<TRIPOS>BOND
     1     1     2    1
     2     2     3   ar
     3     3     4   ar
     4     4     5   ar
     5     5     6   ar
     6     6    12    1
     7    12    13   ar
     8    13    14   ar
     9    14    15   ar
    10    15    16    1
    11    15    17   ar
    12    17    18   ar
    13    18    19    1
    14     6     7   ar
    15     7    20    1
    16    20    21    1
    17     5     8    1
    18     8     9    1
    19     9    24    1
    20    24    25    1
    21    25    26    2
    22    25    27   am
    23    27    28    1
    24    28    29    1
    25    29    30    1
    26    30    31    1
    27    30    32    1
    28    32    33    1
    29     9    10   am
    30    10    11    2
    31     7     2   ar
    32    33    27    1
    33    10     4    1
    34    18    12   ar
    35    21    22    1
    36    21    23    1
@<TRIPOS>MOLECULE
*****
 33 36 0 0 0
SMALL
GASTEIGER

@<TRIPOS>ATOM
      1 C          62.6960   86.4030   18.5714 C.3     1  UNL1        0.0518
      2 C          63.0195   86.8703   17.1832 C.ar    1  UNL1        0.0568
      3 N          63.1859   88.3347   16.9045 N.ar    1  UNL1       -0.2456
      4 C          63.5094   88.8020   15.5164 C.ar    1  UNL1        0.1319
      5 C          63.6666   87.8048   14.4069 C.ar    1  UNL1        0.0196
      6 C          63.5002   86.3404   14.6856 C.ar    1  UNL1       -0.0015
      7 C          63.1767   85.8731   16.0738 C.ar    1  UNL1        0.0068
      8 C          63.9841   88.5573   13.1488 C.3     1  UNL1        0.1226
      9 N          64.0232   90.0196   13.4807 N.am    1  UNL1       -0.2623
     10 C          63.7298   90.1708   14.9440 C.2     1  UNL1        0.2671
     11 O          63.6678   91.4639   15.7017 O.2     1  UNL1       -0.2682
     12 C          63.6574   85.3431   13.5761 C.ar    1  UNL1        0.0102
     13 C          62.6215   85.2547   12.4949 C.ar    1  UNL1        0.0017
     14 C          62.7786   84.2575   11.3854 C.ar    1  UNL1        0.0114
     15 C          63.9715   83.3487   11.3573 C.ar    1  UNL1        0.0585
     16 CL         64.1286   82.3515   10.2478 Cl      1  UNL1       -0.0822
     17 C          65.0074   83.4371   12.4385 C.ar    1  UNL1        0.0228
     18 C          64.8503   84.4343   13.5480 C.ar    1  UNL1        0.0585
     19 CL         65.8862   84.5226   14.6292 Cl      1  UNL1       -0.0822
     20 C          63.0103   84.4086   16.3525 C.3     1  UNL1        0.0934
     21 N          61.9487   83.6252   15.6389 N.3     1  UNL1       -0.3174
     22 H          61.0288   83.9592   15.9261 H       1  UNL1        0.1192
     23 H          62.0401   82.6367   15.8734 H       1  UNL1        0.1192
     24 C          64.3061   91.1349   12.5184 C.3     1  UNL1        0.1798
     25 C          65.1111   92.3209   12.9604 C.2     1  UNL1        0.2460
     26 O          65.4510   92.4982   14.4106 O.2     1  UNL1       -0.2730
     27 N          65.5763   93.3295   11.9523 N.am    1  UNL1       -0.2753
     28 C          65.2365   93.1522   10.5021 C.3     1  UNL1        0.1108
     29 C          65.7016   94.1608    9.4940 C.3     1  UNL1        0.0939
     30 N          66.5067   95.3467    9.9361 N.3     1  UNL1       -0.2686
     31 C          66.9718   96.3553    8.9280 C.3     1  UNL1        0.0897
     32 C          66.8465   95.5240   11.3863 C.3     1  UNL1        0.0939
     33 C          66.3814   94.5154   12.3944 C.3     1  UNL1        0.1108
@<TRIPOS>BOND
     1     1     2    1
     2     2     3   ar
     3     3     4   ar
     4     4     5   ar
     5     5     6   ar
     6     6    12    1
     7    12    13   ar
     8    13    14   ar
     9    14    15   ar
    10    15    16    1
    11    15    17   ar
    12    17    18   ar
    13    18    19    1
    14     6     7   ar
    15     7    20    1
    16    20    21    1
    17     5     8    1
    18     8     9    1
    19     9    24    1
    20    24    25    1
    21    25    26    2
    22    25    27   am
    23    27    28    1
    24    28    29    1
    25    29    30    1
    26    30    31    1
    27    30    32    1
    28    32    33    1
    29     9    10   am
    30    10    11    2
    31     7     2   ar
    32    33    27    1
    33    10     4    1
    34    18    12   ar
    35    21    22    1
    36    21    23    1
