@<TRIPOS>MOLECULE
*****
 65 72 0 0 0
SMALL
GASTEIGER

@<TRIPOS>ATOM
      1 N          62.5119   95.1171   -3.2936 N.3     1  UNL1       -0.1862
      2 C          61.6249   94.5950   -4.3847 C.3     1  UNL1        0.1775
      3 C          60.3592   93.8681   -4.0389 C.2     1  UNL1        0.2452
      4 O          59.4721   93.3460   -5.1301 O.2     1  UNL1       -0.2732
      5 N          59.9806   93.6632   -2.6021 N.am    1  UNL1       -0.2541
      6 C          58.7149   92.9362   -2.2563 C.3     1  UNL1        0.1577
      7 C          58.3363   92.7313   -0.8194 C.2     1  UNL1        0.2445
      8 O          57.0706   92.0044   -0.4736 O.2     1  UNL1       -0.2731
      9 N          59.2234   93.2534    0.2718 N.am    1  UNL1       -0.2705
     10 C          60.4891   93.9804   -0.0740 C.3     1  UNL1        0.1359
     11 C          60.8677   94.1853   -1.5110 C.3     1  UNL1        0.1908
     12 N          62.1333   94.9122   -1.8568 N.am    1  UNL1       -0.1863
     13 C          63.0204   95.4343   -0.7656 C.2     1  UNL1        0.3191
     14 O          62.6418   95.2294    0.6713 O.2     1  UNL1       -0.2512
     15 N          64.2861   96.1613   -1.1114 N.am    1  UNL1       -0.2836
     16 H          64.5346   96.2958   -2.0545 H       1  UNL1        0.1513
     17 C          63.7776   95.8441   -3.6394 C.3     1  UNL1        0.1188
     18 C          65.3442   95.0005   -5.5326 C.2     1  UNL1       -0.0034
     19 C          64.2426   95.9044   -5.0643 C.2     1  UNL1       -0.0071
     20 C          57.8278   92.4141   -3.3473 C.3     1  UNL1        0.0556
     21 C          56.8237   93.3204   -3.9957 C.ar    1  UNL1       -0.0198
     22 C          56.2487   94.4738   -3.2282 C.ar    1  UNL1       -0.0011
     23 C          55.2446   95.3800   -3.8766 C.ar    1  UNL1        0.0363
     24 C          54.8155   95.1330   -5.2925 C.ar    1  UNL1        0.1337
     25 O          53.8113   96.0393   -5.9408 O.3     1  UNL1       -0.5055
     26 C          55.3905   93.9796   -6.0601 C.ar    1  UNL1        0.0363
     27 C          56.3946   93.0733   -5.4117 C.ar    1  UNL1       -0.0011
     28 H          53.4522   96.7597   -5.4614 H       1  UNL1        0.2922
     29 C          58.8448   93.0485    1.7086 C.3     1  UNL1        0.1217
     30 C          59.8232   92.4269    2.6608 C.ar    1  UNL1        0.0135
     31 C          61.2904   92.4503    2.3499 C.ar    1  UNL1       -0.0012
     32 C          62.2688   91.8287    3.3019 C.ar    1  UNL1       -0.0002
     33 C          61.7799   91.1839    4.5649 C.ar    1  UNL1        0.0015
     34 C          60.3126   91.1605    4.8758 C.ar    1  UNL1        0.0170
     35 C          59.5409   90.6016    6.0342 C.ar    1  UNL1        0.0201
     36 C          58.0855   90.8777    5.7980 C.ar    1  UNL1        0.0760
     37 N          57.9579   91.6072    4.4937 N.ar    1  UNL1       -0.3242
     38 C          56.6784   92.0792    3.8690 C.3     1  UNL1        0.1305
     39 C          59.3343   91.7821    3.9237 C.ar    1  UNL1        0.0575
     40 C          60.1224   89.8912    7.2205 C.ar    1  UNL1        0.0208
     41 C          61.2044   90.5436    8.0291 C.ar    1  UNL1        0.0045
     42 C          61.7858   89.8332    9.2154 C.ar    1  UNL1        0.0345
     43 C          61.2854   88.4705    9.5930 C.ar    1  UNL1        0.1353
     44 N          60.2034   87.8181    8.7844 N.ar    1  UNL1       -0.2290
     45 C          59.6220   88.5285    7.5982 C.ar    1  UNL1        0.1003
     46 N          61.8669   87.7602   10.7793 N.am    1  UNL1       -0.2537
     47 C          61.9565   86.2628   10.7873 C.2     1  UNL1        0.3055
     48 O          61.4647   85.4758    9.6088 O.2     1  UNL1       -0.2525
     49 N          62.5381   85.5526   11.9736 N.am    1  UNL1       -0.2902
     50 H          62.1897   88.2767   11.5527 H       1  UNL1        0.1578
     51 H          62.8609   86.0692   12.7470 H       1  UNL1        0.1509
     52 C          62.6277   84.0553   11.9814 C.3     1  UNL1        0.0758
     53 C          62.1904   83.2841   13.1914 C.3     1  UNL1        0.0370
     54 C          62.2801   81.7868   13.1992 C.3     1  UNL1        0.0738
     55 N          62.8070   81.0607   11.9970 N.3     1  UNL1       -0.2714
     56 C          62.8966   79.5634   12.0049 C.3     1  UNL1        0.0896
     57 C          63.2442   81.8319   10.7870 C.3     1  UNL1        0.0738
     58 C          63.1546   83.3292   10.7793 C.3     1  UNL1        0.0370
     59 C          65.1732   96.6834   -0.0203 C.3     1  UNL1        0.1177
     60 C          65.1695   96.0264    1.3281 C.ar    1  UNL1       -0.0025
     61 C          64.9816   94.5423    1.4388 C.ar    1  UNL1       -0.0026
     62 C          64.9780   93.8853    2.7873 C.ar    1  UNL1       -0.0003
     63 C          65.1622   94.7123    4.0250 C.ar    1  UNL1       -0.0000
     64 C          65.3501   96.1964    3.9144 C.ar    1  UNL1       -0.0003
     65 C          65.3538   96.8534    2.5659 C.ar    1  UNL1       -0.0026
@<TRIPOS>BOND
     1    18    19    2
     2    19    17    1
     3    17     1    1
     4     1     2    1
     5     2     3    1
     6     3     4    2
     7     3     5   am
     8     5     6    1
     9     6    20    1
    10    20    21    1
    11    21    22   ar
    12    22    23   ar
    13    23    24   ar
    14    24    25    1
    15    24    26   ar
    16    26    27   ar
    17     6     7    1
    18     7     8    2
    19     7     9   am
    20     9    29    1
    21    29    30    1
    22    30    31   ar
    23    31    32   ar
    24    32    33   ar
    25    33    34   ar
    26    34    35   ar
    27    35    40    1
    28    40    41   ar
    29    41    42   ar
    30    42    43   ar
    31    43    46    1
    32    46    47   am
    33    47    48    2
    34    47    49   am
    35    49    52    1
    36    52    53    1
    37    53    54    1
    38    54    55    1
    39    55    56    1
    40    55    57    1
    41    57    58    1
    42    43    44   ar
    43    44    45   ar
    44    35    36   ar
    45    36    37   ar
    46    37    38    1
    47    37    39   ar
    48     9    10    1
    49    11    10    1
    50    11    12    1
    51    12    13   am
    52    13    14    2
    53    13    15   am
    54    15    59    1
    55    59    60    1
    56    60    61   ar
    57    61    62   ar
    58    62    63   ar
    59    63    64   ar
    60    64    65   ar
    61    12     1    1
    62    65    60   ar
    63    11     5    1
    64    27    21   ar
    65    39    30   ar
    66    39    34   ar
    67    45    40   ar
    68    58    52    1
    69    25    28    1
    70    46    50    1
    71    49    51    1
    72    15    16    1
@<TRIPOS>MOLECULE
*****
 65 72 0 0 0
SMALL
GASTEIGER

@<TRIPOS>ATOM
      1 N          62.3312   94.5936   -3.0469 N.3     1  UNL1       -0.1862
      2 C          61.2795   94.6881   -4.1122 C.3     1  UNL1        0.1775
      3 C          59.8499   94.3736   -3.7848 C.2     1  UNL1        0.2452
      4 O          58.7982   94.4681   -4.8503 O.2     1  UNL1       -0.2732
      5 N          59.4719   93.9646   -2.3921 N.am    1  UNL1       -0.2541
      6 C          58.0422   93.6501   -2.0647 C.3     1  UNL1        0.1577
      7 C          57.6642   93.2411   -0.6720 C.2     1  UNL1        0.2445
      8 O          56.2346   92.9266   -0.3446 O.2     1  UNL1       -0.2731
      9 N          58.7159   93.1466    0.3935 N.am    1  UNL1       -0.2705
     10 C          60.1456   93.4611    0.0661 C.3     1  UNL1        0.1359
     11 C          60.5235   93.8701   -1.3267 C.3     1  UNL1        0.1908
     12 N          61.9532   94.1846   -1.6541 N.am    1  UNL1       -0.1863
     13 C          63.0049   94.0902   -0.5887 C.2     1  UNL1        0.3191
     14 O          62.6269   93.6812    0.8041 O.2     1  UNL1       -0.2512
     15 N          64.4345   94.4047   -0.9160 N.am    1  UNL1       -0.2836
     16 H          64.6826   94.6731   -1.8302 H       1  UNL1        0.1513
     17 C          63.7608   94.9081   -3.3743 C.3     1  UNL1        0.1188
     18 C          64.2819   92.5096   -4.2259 C.2     1  UNL1       -0.0034
     19 C          64.5488   93.9853   -4.2560 C.2     1  UNL1       -0.0071
     20 C          56.9906   93.7446   -3.1301 C.3     1  UNL1        0.0556
     21 C          56.3310   92.4998   -3.6453 C.ar    1  UNL1       -0.0198
     22 C          56.0261   91.3694   -2.7077 C.ar    1  UNL1       -0.0011
     23 C          55.3665   90.1247   -3.2229 C.ar    1  UNL1        0.0363
     24 C          55.0118   90.0103   -4.6759 C.ar    1  UNL1        0.1337
     25 O          54.3522   88.7655   -5.1911 O.3     1  UNL1       -0.5055
     26 C          55.3167   91.1407   -5.6136 C.ar    1  UNL1        0.0363
     27 C          55.9763   92.3855   -5.0984 C.ar    1  UNL1       -0.0011
     28 H          54.1618   88.0594   -4.6054 H       1  UNL1        0.2922
     29 C          58.3379   92.7377    1.7862 C.3     1  UNL1        0.1217
     30 C          59.3820   92.2002    2.7196 C.ar    1  UNL1        0.0135
     31 C          60.8334   92.2865    2.3509 C.ar    1  UNL1       -0.0012
     32 C          61.8775   91.7490    3.2842 C.ar    1  UNL1       -0.0002
     33 C          61.4702   91.1252    4.5860 C.ar    1  UNL1        0.0015
     34 C          60.0188   91.0389    4.9547 C.ar    1  UNL1        0.0170
     35 C          59.3208   90.4829    6.1603 C.ar    1  UNL1        0.0201
     36 C          57.8453   90.6767    5.9722 C.ar    1  UNL1        0.0760
     37 N          57.6314   91.3525    4.6503 N.ar    1  UNL1       -0.3242
     38 C          56.3068   91.7370    4.0608 C.3     1  UNL1        0.1305
     39 C          58.9747   91.5764    4.0214 C.ar    1  UNL1        0.0575
     40 C          59.9822   89.8450    7.3460 C.ar    1  UNL1        0.0208
     41 C          59.9517   88.3543    7.5098 C.ar    1  UNL1        0.0045
     42 C          60.6131   87.7165    8.6955 C.ar    1  UNL1        0.0345
     43 C          61.3049   88.5693    9.7172 C.ar    1  UNL1        0.1353
     44 N          61.3354   90.0600    9.5534 N.ar    1  UNL1       -0.2290
     45 C          60.6740   90.6978    8.3678 C.ar    1  UNL1        0.1003
     46 N          61.9663   87.9314   10.9028 N.am    1  UNL1       -0.2537
     47 C          61.9891   86.4374   11.0353 C.2     1  UNL1        0.3055
     48 O          61.3504   85.5813    9.9822 O.2     1  UNL1       -0.2525
     49 N          62.6505   85.7996   12.2210 N.am    1  UNL1       -0.2902
     50 H          62.3855   88.4933   11.5940 H       1  UNL1        0.1578
     51 H          63.0696   86.3615   12.9122 H       1  UNL1        0.1509
     52 C          62.6732   84.3057   12.3534 C.3     1  UNL1        0.0758
     53 C          62.8467   83.4473   11.1356 C.3     1  UNL1        0.0370
     54 C          62.8694   81.9533   11.2680 C.3     1  UNL1        0.0738
     55 N          62.7186   81.3177   12.6183 N.3     1  UNL1       -0.2714
     56 C          62.7413   79.8237   12.7508 C.3     1  UNL1        0.0896
     57 C          62.5450   82.1760   13.8362 C.3     1  UNL1        0.0738
     58 C          62.5223   83.6700   13.7036 C.3     1  UNL1        0.0370
     59 C          65.4862   94.3102    0.1493 C.3     1  UNL1        0.1177
     60 C          65.2985   95.0261    1.4540 C.ar    1  UNL1       -0.0025
     61 C          66.1210   94.6387    2.6471 C.ar    1  UNL1       -0.0026
     62 C          65.9333   95.3546    3.9518 C.ar    1  UNL1       -0.0003
     63 C          64.9231   96.4578    4.0635 C.ar    1  UNL1       -0.0000
     64 C          64.1005   96.8451    2.8704 C.ar    1  UNL1       -0.0003
     65 C          64.2882   96.1293    1.5657 C.ar    1  UNL1       -0.0026
@<TRIPOS>BOND
     1    18    19    2
     2    19    17    1
     3    17     1    1
     4     1     2    1
     5     2     3    1
     6     3     4    2
     7     3     5   am
     8     5     6    1
     9     6    20    1
    10    20    21    1
    11    21    22   ar
    12    22    23   ar
    13    23    24   ar
    14    24    25    1
    15    24    26   ar
    16    26    27   ar
    17     6     7    1
    18     7     8    2
    19     7     9   am
    20     9    29    1
    21    29    30    1
    22    30    31   ar
    23    31    32   ar
    24    32    33   ar
    25    33    34   ar
    26    34    35   ar
    27    35    40    1
    28    40    41   ar
    29    41    42   ar
    30    42    43   ar
    31    43    46    1
    32    46    47   am
    33    47    48    2
    34    47    49   am
    35    49    52    1
    36    52    53    1
    37    53    54    1
    38    54    55    1
    39    55    56    1
    40    55    57    1
    41    57    58    1
    42    43    44   ar
    43    44    45   ar
    44    35    36   ar
    45    36    37   ar
    46    37    38    1
    47    37    39   ar
    48     9    10    1
    49    11    10    1
    50    11    12    1
    51    12    13   am
    52    13    14    2
    53    13    15   am
    54    15    59    1
    55    59    60    1
    56    60    61   ar
    57    61    62   ar
    58    62    63   ar
    59    63    64   ar
    60    64    65   ar
    61    12     1    1
    62    65    60   ar
    63    11     5    1
    64    27    21   ar
    65    39    30   ar
    66    39    34   ar
    67    45    40   ar
    68    58    52    1
    69    25    28    1
    70    46    50    1
    71    49    51    1
    72    15    16    1
@<TRIPOS>MOLECULE
*****
 65 72 0 0 0
SMALL
GASTEIGER

@<TRIPOS>ATOM
      1 N          62.3255   95.3116   -3.0657 N.3     1  UNL1       -0.1862
      2 C          61.2526   94.8967   -4.0282 C.3     1  UNL1        0.1775
      3 C          59.9909   94.2655   -3.5185 C.2     1  UNL1        0.2452
      4 O          58.9179   93.8506   -4.4811 O.2     1  UNL1       -0.2732
      5 N          59.8022   94.0492   -2.0462 N.am    1  UNL1       -0.2541
      6 C          58.5406   93.4180   -1.5365 C.3     1  UNL1        0.1577
      7 C          58.3519   93.2017   -0.0643 C.2     1  UNL1        0.2445
      8 O          57.0902   92.5705    0.4454 O.2     1  UNL1       -0.2731
      9 N          59.4249   93.6167    0.8984 N.am    1  UNL1       -0.2705
     10 C          60.6865   94.2479    0.3886 C.3     1  UNL1        0.1359
     11 C          60.8752   94.4641   -1.0837 C.3     1  UNL1        0.1908
     12 N          62.1369   95.0953   -1.5934 N.am    1  UNL1       -0.1863
     13 C          63.2099   95.5103   -0.6308 C.2     1  UNL1        0.3191
     14 O          63.0212   95.2940    0.8415 O.2     1  UNL1       -0.2512
     15 N          64.4715   96.1415   -1.1405 N.am    1  UNL1       -0.2836
     16 H          64.5953   96.2834   -2.1068 H       1  UNL1        0.1513
     17 C          63.5872   95.9428   -3.5754 C.3     1  UNL1        0.1188
     18 C          65.6104   95.7949   -5.1985 C.2     1  UNL1       -0.0034
     19 C          64.1755   95.4953   -4.8806 C.2     1  UNL1       -0.0071
     20 C          57.4676   93.0031   -2.4991 C.3     1  UNL1        0.0556
     21 C          56.3131   93.9198   -2.7760 C.ar    1  UNL1       -0.0198
     22 C          56.2344   94.6534   -4.0820 C.ar    1  UNL1       -0.0011
     23 C          55.0799   95.5701   -4.3590 C.ar    1  UNL1        0.0363
     24 C          54.0040   95.7532   -3.3300 C.ar    1  UNL1        0.1337
     25 O          52.8495   96.6699   -3.6069 O.3     1  UNL1       -0.5055
     26 C          54.0827   95.0197   -2.0239 C.ar    1  UNL1        0.0363
     27 C          55.2372   94.1030   -1.7469 C.ar    1  UNL1       -0.0011
     28 H          52.8004   97.1282   -4.4228 H       1  UNL1        0.2922
     29 C          59.2362   93.4004    2.3706 C.3     1  UNL1        0.1217
     30 C          60.0978   92.4127    3.1001 C.ar    1  UNL1        0.0135
     31 C          61.5417   92.2563    2.7251 C.ar    1  UNL1       -0.0012
     32 C          62.4034   91.2686    3.4545 C.ar    1  UNL1       -0.0002
     33 C          61.8211   90.4374    4.5589 C.ar    1  UNL1        0.0015
     34 C          60.3772   90.5937    4.9340 C.ar    1  UNL1        0.0170
     35 C          59.5308   89.9179    5.9717 C.ar    1  UNL1        0.0201
     36 C          58.1462   90.4879    5.8837 C.ar    1  UNL1        0.0760
     37 N          58.1367   91.5159    4.7915 N.ar    1  UNL1       -0.3242
     38 C          56.9558   92.3349    4.3617 C.3     1  UNL1        0.1305
     39 C          59.5155   91.5814    4.2045 C.ar    1  UNL1        0.0575
     40 C          59.9888   88.8581    6.9295 C.ar    1  UNL1        0.0208
     41 C          60.6592   89.2469    8.2138 C.ar    1  UNL1        0.0045
     42 C          61.1172   88.1871    9.1714 C.ar    1  UNL1        0.0345
     43 C          60.9047   86.7386    8.8448 C.ar    1  UNL1        0.1353
     44 N          60.2343   86.3498    7.5605 N.ar    1  UNL1       -0.2290
     45 C          59.7764   87.4096    6.6029 C.ar    1  UNL1        0.1003
     46 N          61.3627   85.6788    9.8025 N.am    1  UNL1       -0.2537
     47 C          61.7122   86.0444   11.2147 C.2     1  UNL1        0.3055
     48 O          61.6037   87.4698   11.6692 O.2     1  UNL1       -0.2525
     49 N          62.1702   84.9846   12.1723 N.am    1  UNL1       -0.2902
     50 H          61.4339   84.7433    9.5042 H       1  UNL1        0.1578
     51 H          62.2414   84.0491   11.8740 H       1  UNL1        0.1509
     52 C          62.5196   85.3502   13.5845 C.3     1  UNL1        0.0758
     53 C          61.8218   84.6761   14.7284 C.3     1  UNL1        0.0370
     54 C          62.1713   85.0417   16.1406 C.3     1  UNL1        0.0738
     55 N          63.2186   86.0816   16.4088 N.3     1  UNL1       -0.2714
     56 C          63.5681   86.4472   17.8210 C.3     1  UNL1        0.0896
     57 C          63.9164   86.7557   15.2649 C.3     1  UNL1        0.0738
     58 C          63.5669   86.3900   13.8527 C.3     1  UNL1        0.0370
     59 C          65.5445   96.5564   -0.1780 C.3     1  UNL1        0.1177
     60 C          65.2401   96.6554    1.2875 C.ar    1  UNL1       -0.0025
     61 C          66.3580   96.6532    2.2876 C.ar    1  UNL1       -0.0026
     62 C          66.0536   96.7522    3.7530 C.ar    1  UNL1       -0.0003
     63 C          64.6312   96.8535    4.2184 C.ar    1  UNL1       -0.0000
     64 C          63.5132   96.8557    3.2183 C.ar    1  UNL1       -0.0003
     65 C          63.8176   96.7566    1.7528 C.ar    1  UNL1       -0.0026
@<TRIPOS>BOND
     1    18    19    2
     2    19    17    1
     3    17     1    1
     4     1     2    1
     5     2     3    1
     6     3     4    2
     7     3     5   am
     8     5     6    1
     9     6    20    1
    10    20    21    1
    11    21    22   ar
    12    22    23   ar
    13    23    24   ar
    14    24    25    1
    15    24    26   ar
    16    26    27   ar
    17     6     7    1
    18     7     8    2
    19     7     9   am
    20     9    29    1
    21    29    30    1
    22    30    31   ar
    23    31    32   ar
    24    32    33   ar
    25    33    34   ar
    26    34    35   ar
    27    35    40    1
    28    40    41   ar
    29    41    42   ar
    30    42    43   ar
    31    43    46    1
    32    46    47   am
    33    47    48    2
    34    47    49   am
    35    49    52    1
    36    52    53    1
    37    53    54    1
    38    54    55    1
    39    55    56    1
    40    55    57    1
    41    57    58    1
    42    43    44   ar
    43    44    45   ar
    44    35    36   ar
    45    36    37   ar
    46    37    38    1
    47    37    39   ar
    48     9    10    1
    49    11    10    1
    50    11    12    1
    51    12    13   am
    52    13    14    2
    53    13    15   am
    54    15    59    1
    55    59    60    1
    56    60    61   ar
    57    61    62   ar
    58    62    63   ar
    59    63    64   ar
    60    64    65   ar
    61    12     1    1
    62    65    60   ar
    63    11     5    1
    64    27    21   ar
    65    39    30   ar
    66    39    34   ar
    67    45    40   ar
    68    58    52    1
    69    25    28    1
    70    46    50    1
    71    49    51    1
    72    15    16    1
@<TRIPOS>MOLECULE
*****
 65 72 0 0 0
SMALL
GASTEIGER

@<TRIPOS>ATOM
      1 N          62.2160   94.1165   -3.5326 N.3     1  UNL1       -0.1862
      2 C          61.1401   94.2568   -4.5682 C.3     1  UNL1        0.1775
      3 C          59.7017   94.0717   -4.1852 C.2     1  UNL1        0.2452
      4 O          58.6257   94.2121   -5.2209 O.2     1  UNL1       -0.2732
      5 N          59.3392   93.7463   -2.7665 N.am    1  UNL1       -0.2541
      6 C          57.9008   93.5613   -2.3834 C.3     1  UNL1        0.1577
      7 C          57.5383   93.2359   -0.9648 C.2     1  UNL1        0.2445
      8 O          56.0999   93.0508   -0.5817 O.2     1  UNL1       -0.2731
      9 N          58.6143   93.0955    0.0710 N.am    1  UNL1       -0.2705
     10 C          60.0527   93.2806   -0.3121 C.3     1  UNL1        0.1359
     11 C          60.4152   93.6060   -1.7309 C.3     1  UNL1        0.1908
     12 N          61.8536   93.7911   -2.1139 N.am    1  UNL1       -0.1863
     13 C          62.9295   93.6508   -1.0782 C.2     1  UNL1        0.3191
     14 O          62.5671   93.3254    0.3405 O.2     1  UNL1       -0.2512
     15 N          64.3680   93.8358   -1.4612 N.am    1  UNL1       -0.2836
     16 H          64.6058   94.0494   -2.3924 H       1  UNL1        0.1513
     17 C          63.6544   94.3016   -3.9156 C.3     1  UNL1        0.1188
     18 C          64.3774   92.2428   -5.3257 C.2     1  UNL1       -0.0034
     19 C          64.1689   93.7229   -5.2003 C.2     1  UNL1       -0.0071
     20 C          56.8248   93.7016   -3.4191 C.3     1  UNL1        0.0556
     21 C          56.1902   92.4785   -4.0118 C.ar    1  UNL1       -0.0198
     22 C          55.8152   92.4570   -5.4639 C.ar    1  UNL1       -0.0011
     23 C          55.1805   91.2339   -6.0566 C.ar    1  UNL1        0.0363
     24 C          54.9210   90.0323   -5.1971 C.ar    1  UNL1        0.1337
     25 O          54.2863   88.8092   -5.7898 O.3     1  UNL1       -0.5055
     26 C          55.2960   90.0538   -3.7449 C.ar    1  UNL1        0.0363
     27 C          55.9306   91.2769   -3.1522 C.ar    1  UNL1       -0.0011
     28 H          54.0521   88.7958   -6.6970 H       1  UNL1        0.2922
     29 C          58.2519   92.7701    1.4896 C.3     1  UNL1        0.1217
     30 C          59.3091   92.3025    2.4455 C.ar    1  UNL1        0.0135
     31 C          60.7588   92.4360    2.0843 C.ar    1  UNL1       -0.0012
     32 C          61.8161   91.9684    3.0400 C.ar    1  UNL1       -0.0002
     33 C          61.4236   91.3673    4.3571 C.ar    1  UNL1        0.0015
     34 C          59.9738   91.2338    4.7183 C.ar    1  UNL1        0.0170
     35 C          59.2890   90.6860    5.9352 C.ar    1  UNL1        0.0201
     36 C          57.8085   90.8150    5.7315 C.ar    1  UNL1        0.0760
     37 N          57.5784   91.4426    4.3887 N.ar    1  UNL1       -0.3242
     38 C          56.2443   91.7562    3.7791 C.3     1  UNL1        0.1305
     39 C          58.9166   91.7014    3.7625 C.ar    1  UNL1        0.0575
     40 C          59.9659   90.1101    7.1437 C.ar    1  UNL1        0.0208
     41 C          61.0122   90.9049    7.8673 C.ar    1  UNL1        0.0045
     42 C          61.6889   90.3291    9.0758 C.ar    1  UNL1        0.0345
     43 C          61.3195   88.9585    9.5606 C.ar    1  UNL1        0.1353
     44 N          60.2732   88.1637    8.8370 N.ar    1  UNL1       -0.2290
     45 C          59.5964   88.7396    7.6286 C.ar    1  UNL1        0.1003
     46 N          61.9963   88.3828   10.7690 N.am    1  UNL1       -0.2537
     47 C          62.5014   89.2916   11.8503 C.2     1  UNL1        0.3055
     48 O          62.3295   90.7763   11.7230 O.2     1  UNL1       -0.2525
     49 N          63.1782   88.7158   13.0587 N.am    1  UNL1       -0.2902
     50 H          62.1091   87.4083   10.8526 H       1  UNL1        0.1578
     51 H          63.2910   87.7413   13.1422 H       1  UNL1        0.1509
     52 C          63.6831   89.6247   14.1398 C.3     1  UNL1        0.0758
     53 C          63.0905   89.5547   15.5160 C.3     1  UNL1        0.0370
     54 C          63.5954   90.4636   16.5972 C.3     1  UNL1        0.0738
     55 N          64.6932   91.4425   16.3021 N.3     1  UNL1       -0.2714
     56 C          65.1981   92.3514   17.3833 C.3     1  UNL1        0.0896
     57 C          65.2858   91.5125   14.9260 C.3     1  UNL1        0.0738
     58 C          64.7808   90.6035   13.8448 C.3     1  UNL1        0.0370
     59 C          65.4439   93.6955   -0.4256 C.3     1  UNL1        0.1177
     60 C          65.3961   94.5257    0.8228 C.ar    1  UNL1       -0.0025
     61 C          64.8545   93.9397    2.0929 C.ar    1  UNL1       -0.0026
     62 C          64.8068   94.7698    3.3413 C.ar    1  UNL1       -0.0003
     63 C          65.3006   96.1860    3.3196 C.ar    1  UNL1       -0.0000
     64 C          65.8422   96.7721    2.0495 C.ar    1  UNL1       -0.0003
     65 C          65.8900   95.9419    0.8011 C.ar    1  UNL1       -0.0026
@<TRIPOS>BOND
     1    18    19    2
     2    19    17    1
     3    17     1    1
     4     1     2    1
     5     2     3    1
     6     3     4    2
     7     3     5   am
     8     5     6    1
     9     6    20    1
    10    20    21    1
    11    21    22   ar
    12    22    23   ar
    13    23    24   ar
    14    24    25    1
    15    24    26   ar
    16    26    27   ar
    17     6     7    1
    18     7     8    2
    19     7     9   am
    20     9    29    1
    21    29    30    1
    22    30    31   ar
    23    31    32   ar
    24    32    33   ar
    25    33    34   ar
    26    34    35   ar
    27    35    40    1
    28    40    41   ar
    29    41    42   ar
    30    42    43   ar
    31    43    46    1
    32    46    47   am
    33    47    48    2
    34    47    49   am
    35    49    52    1
    36    52    53    1
    37    53    54    1
    38    54    55    1
    39    55    56    1
    40    55    57    1
    41    57    58    1
    42    43    44   ar
    43    44    45   ar
    44    35    36   ar
    45    36    37   ar
    46    37    38    1
    47    37    39   ar
    48     9    10    1
    49    11    10    1
    50    11    12    1
    51    12    13   am
    52    13    14    2
    53    13    15   am
    54    15    59    1
    55    59    60    1
    56    60    61   ar
    57    61    62   ar
    58    62    63   ar
    59    63    64   ar
    60    64    65   ar
    61    12     1    1
    62    65    60   ar
    63    11     5    1
    64    27    21   ar
    65    39    30   ar
    66    39    34   ar
    67    45    40   ar
    68    58    52    1
    69    25    28    1
    70    46    50    1
    71    49    51    1
    72    15    16    1
