@<TRIPOS>MOLECULE
*****
 25 29 0 0 0
SMALL
GASTEIGER

@<TRIPOS>ATOM
      1 C          63.0632   89.8152   11.6437 C.ar    1  UNL1       -0.0061
      2 C          62.3037   89.3270   10.4458 C.ar    1  UNL1       -0.0032
      3 C          61.9967   87.8664   10.2967 C.ar    1  UNL1       -0.0045
      4 C          62.4491   86.8940   11.3454 C.ar    1  UNL1       -0.0202
      5 C          63.2085   87.3822   12.5432 C.ar    1  UNL1        0.0115
      6 C          63.5156   88.8428   12.6923 C.ar    1  UNL1       -0.0020
      7 C          63.5230   86.1971   13.4072 C.2     1  UNL1        0.0858
      8 N          64.1868   85.7664   14.6815 N.2     1  UNL1       -0.1523
      9 N          64.0319   84.2795   14.8053 N.2     1  UNL1       -0.1523
     10 C          63.2724   83.7914   13.6075 C.2     1  UNL1        0.0866
     11 C          62.9579   84.9764   12.7434 C.3     1  UNL1        0.0883
     12 C          62.2942   85.4071   11.4691 C.3     1  UNL1        0.0384
     13 C          62.8939   82.3680   13.3236 C.ar    1  UNL1        0.0227
     14 C          63.2439   81.5921   12.0883 C.ar    1  UNL1        0.0087
     15 C          62.6652   80.2151   12.2263 C.ar    1  UNL1        0.0355
     16 S          61.9576   80.1399   13.5469 S.2     1  UNL1       -0.0859
     17 C          62.0989   81.4704   14.2250 C.ar    1  UNL1        0.0367
     18 C          63.3703   91.2759   11.7929 C.3     1  UNL1        0.0992
     19 C          67.4159   93.0935   15.8338 C.3     1  UNL1        0.0897
     20 N          66.4045   92.6391   14.8235 N.3     1  UNL1       -0.2691
     21 C          65.2978   91.7136   15.2342 C.3     1  UNL1        0.0897
     22 C          64.2864   91.2592   14.2240 C.3     1  UNL1        0.0899
     23 N          64.3816   91.7303   12.8031 N.3     1  UNL1       -0.2665
     24 C          65.4884   92.6558   12.3924 C.3     1  UNL1        0.0899
     25 C          66.4998   93.1102   13.4026 C.3     1  UNL1        0.0897
@<TRIPOS>BOND
     1    19    20    1
     2    20    21    1
     3    21    22    1
     4    22    23    1
     5    23    18    1
     6    18     1    1
     7     1     2   ar
     8     2     3   ar
     9     3     4   ar
    10     4     5   ar
    11     5     6   ar
    12     5     7    1
    13     7     8    2
    14     8     9    1
    15     9    10    2
    16    10    13    1
    17    13    14   ar
    18    14    15   ar
    19    15    16   ar
    20    16    17   ar
    21    10    11    1
    22    11    12    1
    23    23    24    1
    24    24    25    1
    25    25    20    1
    26     6     1   ar
    27    11     7    1
    28    12     4    1
    29    17    13   ar
@<TRIPOS>MOLECULE
*****
 25 29 0 0 0
SMALL
GASTEIGER

@<TRIPOS>ATOM
      1 C          63.8509   89.8100   13.3904 C.ar    1  UNL1       -0.0061
      2 C          63.1089   89.6449   12.0973 C.ar    1  UNL1       -0.0032
      3 C          62.7242   88.2749   11.6230 C.ar    1  UNL1       -0.0045
      4 C          63.0814   87.0700   12.4419 C.ar    1  UNL1       -0.0202
      5 C          63.8234   87.2350   13.7350 C.ar    1  UNL1        0.0115
      6 C          64.2081   88.6051   14.2092 C.ar    1  UNL1       -0.0020
      7 C          64.0375   85.8722   14.3237 C.2     1  UNL1        0.0858
      8 N          64.6285   85.1319   15.4868 N.2     1  UNL1       -0.1523
      9 N          64.3841   83.6670   15.2764 N.2     1  UNL1       -0.1523
     10 C          63.6421   83.5019   13.9833 C.2     1  UNL1        0.0866
     11 C          63.4279   84.8647   13.3945 C.3     1  UNL1        0.0883
     12 C          62.8370   85.6050   12.2314 C.3     1  UNL1        0.0384
     13 C          63.1932   82.2021   13.3842 C.ar    1  UNL1        0.0227
     14 C          62.4648   81.1050   14.1025 C.ar    1  UNL1        0.0087
     15 C          62.2152   79.9960   13.1238 C.ar    1  UNL1        0.0355
     16 S          62.7893   80.4078   11.8005 S.2     1  UNL1       -0.0859
     17 C          63.3937   81.7712   11.9614 C.ar    1  UNL1        0.0367
     18 C          64.2356   91.1801   13.8647 C.3     1  UNL1        0.0992
     19 C          67.0321   94.9672   10.1449 C.3     1  UNL1        0.0897
     20 N          66.3330   94.0204   11.0748 N.3     1  UNL1       -0.2691
     21 C          66.5781   94.1025   12.5523 C.3     1  UNL1        0.0897
     22 C          65.8790   93.1557   13.4824 C.3     1  UNL1        0.0899
     23 N          64.9347   92.1269   12.9348 N.3     1  UNL1       -0.2665
     24 C          64.6896   92.0448   11.4572 C.3     1  UNL1        0.0899
     25 C          65.3887   92.9916   10.5273 C.3     1  UNL1        0.0897
@<TRIPOS>BOND
     1    19    20    1
     2    20    21    1
     3    21    22    1
     4    22    23    1
     5    23    18    1
     6    18     1    1
     7     1     2   ar
     8     2     3   ar
     9     3     4   ar
    10     4     5   ar
    11     5     6   ar
    12     5     7    1
    13     7     8    2
    14     8     9    1
    15     9    10    2
    16    10    13    1
    17    13    14   ar
    18    14    15   ar
    19    15    16   ar
    20    16    17   ar
    21    10    11    1
    22    11    12    1
    23    23    24    1
    24    24    25    1
    25    25    20    1
    26     6     1   ar
    27    11     7    1
    28    12     4    1
    29    17    13   ar
@<TRIPOS>MOLECULE
*****
 25 29 0 0 0
SMALL
GASTEIGER

@<TRIPOS>ATOM
      1 C          64.0656   90.1135   13.4554 C.ar    1  UNL1       -0.0061
      2 C          64.5700   89.5914   14.7679 C.ar    1  UNL1       -0.0032
      3 C          64.5018   88.1231   15.0671 C.ar    1  UNL1       -0.0045
      4 C          63.9291   87.1770   14.0537 C.ar    1  UNL1       -0.0202
      5 C          63.4247   87.6992   12.7412 C.ar    1  UNL1        0.0115
      6 C          63.4929   89.1674   12.4420 C.ar    1  UNL1       -0.0020
      7 C          62.9169   86.5348   11.9434 C.2     1  UNL1        0.0858
      8 N          62.2914   86.1379   10.6392 N.2     1  UNL1       -0.1523
      9 N          62.0953   84.6509   10.6526 N.2     1  UNL1       -0.1523
     10 C          62.5997   84.1287   11.9652 C.2     1  UNL1        0.0866
     11 C          63.1075   85.2930   12.7630 C.3     1  UNL1        0.0883
     12 C          63.7331   85.6899   14.0672 C.3     1  UNL1        0.0384
     13 C          62.5969   82.6941   12.4031 C.ar    1  UNL1        0.0227
     14 C          62.8954   81.5069   11.5360 C.ar    1  UNL1        0.0087
     15 C          62.7780   80.2738   12.3820 C.ar    1  UNL1        0.0355
     16 S          62.4069   80.6989   13.7719 S.2     1  UNL1       -0.0859
     17 C          62.2950   82.1946   13.7849 C.ar    1  UNL1        0.0367
     18 C          64.1338   91.5818   13.1561 C.3     1  UNL1        0.0992
     19 C          68.4234   93.7107    9.5413 C.3     1  UNL1        0.0897
     20 N          67.3510   93.1785   10.4450 N.3     1  UNL1       -0.2691
     21 C          65.9083   93.3134   10.0573 C.3     1  UNL1        0.0897
     22 C          64.8359   92.7812   10.9610 C.3     1  UNL1        0.0899
     23 N          65.2062   92.1140   12.2524 N.3     1  UNL1       -0.2665
     24 C          66.6490   91.9791   12.6401 C.3     1  UNL1        0.0899
     25 C          67.7214   92.5113   11.7364 C.3     1  UNL1        0.0897
@<TRIPOS>BOND
     1    19    20    1
     2    20    21    1
     3    21    22    1
     4    22    23    1
     5    23    18    1
     6    18     1    1
     7     1     2   ar
     8     2     3   ar
     9     3     4   ar
    10     4     5   ar
    11     5     6   ar
    12     5     7    1
    13     7     8    2
    14     8     9    1
    15     9    10    2
    16    10    13    1
    17    13    14   ar
    18    14    15   ar
    19    15    16   ar
    20    16    17   ar
    21    10    11    1
    22    11    12    1
    23    23    24    1
    24    24    25    1
    25    25    20    1
    26     6     1   ar
    27    11     7    1
    28    12     4    1
    29    17    13   ar
@<TRIPOS>MOLECULE
*****
 25 29 0 0 0
SMALL
GASTEIGER

@<TRIPOS>ATOM
      1 C          63.1061   87.1193   12.5319 C.ar    1  UNL1       -0.0061
      2 C          63.4696   88.5723   12.6116 C.ar    1  UNL1       -0.0032
      3 C          62.9235   89.5385   11.6025 C.ar    1  UNL1       -0.0045
      4 C          62.0138   89.0515   10.5137 C.ar    1  UNL1       -0.0202
      5 C          61.6503   87.5985   10.4341 C.ar    1  UNL1        0.0115
      6 C          62.1964   86.6323   11.4431 C.ar    1  UNL1       -0.0020
      7 C          60.7385   87.4126    9.2575 C.2     1  UNL1        0.0858
      8 N          59.9504   86.3997    8.4812 N.2     1  UNL1       -0.1523
      9 N          59.2634   87.1118    7.3539 N.2     1  UNL1       -0.1523
     10 C          59.6269   88.5649    7.4336 C.2     1  UNL1        0.0866
     11 C          60.5386   88.7508    8.6101 C.3     1  UNL1        0.0883
     12 C          61.3267   89.7638    9.3864 C.3     1  UNL1        0.0384
     13 C          59.1606   89.6428    6.5006 C.ar    1  UNL1        0.0227
     14 C          60.0398   90.5483    5.6897 C.ar    1  UNL1        0.0087
     15 C          59.1558   91.4697    4.9025 C.ar    1  UNL1        0.0355
     16 S          57.7302   91.1337    5.2269 S.2     1  UNL1       -0.0859
     17 C          57.7332   90.0047    6.2145 C.ar    1  UNL1        0.0367
     18 C          63.6522   86.1530   13.5410 C.3     1  UNL1        0.0992
     19 C          62.4023   80.3032   13.0758 C.3     1  UNL1        0.0897
     20 N          62.7148   81.7656   13.1921 N.3     1  UNL1       -0.2691
     21 C          62.1186   82.5736   14.3063 C.3     1  UNL1        0.0897
     22 C          62.4310   84.0362   14.4226 C.3     1  UNL1        0.0899
     23 N          63.3398   84.6906   13.4247 N.3     1  UNL1       -0.2665
     24 C          63.9360   83.8825   12.3104 C.3     1  UNL1        0.0899
     25 C          63.6235   82.4201   12.1941 C.3     1  UNL1        0.0897
@<TRIPOS>BOND
     1    19    20    1
     2    20    21    1
     3    21    22    1
     4    22    23    1
     5    23    18    1
     6    18     1    1
     7     1     2   ar
     8     2     3   ar
     9     3     4   ar
    10     4     5   ar
    11     5     6   ar
    12     5     7    1
    13     7     8    2
    14     8     9    1
    15     9    10    2
    16    10    13    1
    17    13    14   ar
    18    14    15   ar
    19    15    16   ar
    20    16    17   ar
    21    10    11    1
    22    11    12    1
    23    23    24    1
    24    24    25    1
    25    25    20    1
    26     6     1   ar
    27    11     7    1
    28    12     4    1
    29    17    13   ar
@<TRIPOS>MOLECULE
*****
 25 29 0 0 0
SMALL
GASTEIGER

@<TRIPOS>ATOM
      1 C          63.9515   89.5230   13.7884 C.ar    1  UNL1       -0.0061
      2 C          64.3637   88.9036   15.0908 C.ar    1  UNL1       -0.0032
      3 C          64.2818   87.4171   15.2735 C.ar    1  UNL1       -0.0045
      4 C          63.7877   86.5499   14.1537 C.ar    1  UNL1       -0.0202
      5 C          63.3755   87.1694   12.8513 C.ar    1  UNL1        0.0115
      6 C          63.4574   88.6559   12.6686 C.ar    1  UNL1       -0.0020
      7 C          62.9318   86.0684   11.9342 C.2     1  UNL1        0.0858
      8 N          62.4028   85.7708   10.5625 N.2     1  UNL1       -0.1523
      9 N          62.2139   84.2870   10.4504 N.2     1  UNL1       -0.1523
     10 C          62.6261   83.6676   11.7528 C.2     1  UNL1        0.0866
     11 C          63.0698   84.7685   12.6699 C.3     1  UNL1        0.0883
     12 C          63.5987   85.0660   14.0416 C.3     1  UNL1        0.0384
     13 C          62.5993   82.2041   12.0807 C.ar    1  UNL1        0.0227
     14 C          62.9375   81.0839   11.1420 C.ar    1  UNL1        0.0087
     15 C          62.7768   79.7913   11.8859 C.ar    1  UNL1        0.0355
     16 S          62.3393   80.1126   13.2843 S.2     1  UNL1       -0.0859
     17 C          62.2296   81.6037   13.4047 C.ar    1  UNL1        0.0367
     18 C          64.0335   91.0097   13.6057 C.3     1  UNL1        0.0992
     19 C          68.7063   94.0516   15.8218 C.3     1  UNL1        0.0897
     20 N          67.5381   93.2911   15.2678 N.3     1  UNL1       -0.2691
     21 C          66.4665   92.7874   16.1885 C.3     1  UNL1        0.0897
     22 C          65.2982   92.0268   15.6345 C.3     1  UNL1        0.0899
     23 N          65.2017   91.7701   14.1598 N.3     1  UNL1       -0.2665
     24 C          66.2734   92.2740   13.2390 C.3     1  UNL1        0.0899
     25 C          67.4416   93.0344   13.7931 C.3     1  UNL1        0.0897
@<TRIPOS>BOND
     1    19    20    1
     2    20    21    1
     3    21    22    1
     4    22    23    1
     5    23    18    1
     6    18     1    1
     7     1     2   ar
     8     2     3   ar
     9     3     4   ar
    10     4     5   ar
    11     5     6   ar
    12     5     7    1
    13     7     8    2
    14     8     9    1
    15     9    10    2
    16    10    13    1
    17    13    14   ar
    18    14    15   ar
    19    15    16   ar
    20    16    17   ar
    21    10    11    1
    22    11    12    1
    23    23    24    1
    24    24    25    1
    25    25    20    1
    26     6     1   ar
    27    11     7    1
    28    12     4    1
    29    17    13   ar
@<TRIPOS>MOLECULE
*****
 25 29 0 0 0
SMALL
GASTEIGER

@<TRIPOS>ATOM
      1 C          61.9297   88.1870   11.4173 C.ar    1  UNL1       -0.0061
      2 C          61.5448   88.6599   10.0469 C.ar    1  UNL1       -0.0032
      3 C          62.1327   89.9259    9.4978 C.ar    1  UNL1       -0.0045
      4 C          63.1056   90.7190   10.3191 C.ar    1  UNL1       -0.0202
      5 C          63.4906   90.2460   11.6895 C.ar    1  UNL1        0.0115
      6 C          62.9026   88.9801   12.2386 C.ar    1  UNL1       -0.0020
      7 C          64.4665   91.2305   12.2624 C.2     1  UNL1        0.0858
      8 N          65.3076   91.5466   13.4635 N.2     1  UNL1       -0.1523
      9 N          66.0457   92.8234   13.1895 N.2     1  UNL1       -0.1523
     10 C          65.6608   93.2963   11.8190 C.2     1  UNL1        0.0866
     11 C          64.6848   92.3119   11.2460 C.3     1  UNL1        0.0883
     12 C          63.8437   91.9958   10.0450 C.3     1  UNL1        0.0384
     13 C          66.1636   94.5360   11.1406 C.ar    1  UNL1        0.0227
     14 C          66.0896   95.9314   11.6862 C.ar    1  UNL1        0.0087
     15 C          66.7089   96.8559   10.6803 C.ar    1  UNL1        0.0355
     16 S          67.1658   96.0318    9.5130 S.2     1  UNL1       -0.0859
     17 C          66.8287   94.5981    9.7975 C.ar    1  UNL1        0.0367
     18 C          61.3417   86.9210   11.9665 C.3     1  UNL1        0.0992
     19 C          64.6599   81.9276   12.2020 C.3     1  UNL1        0.0897
     20 N          63.8304   83.1759   12.1431 N.3     1  UNL1       -0.2691
     21 C          63.4774   83.9022   13.4072 C.3     1  UNL1        0.0897
     22 C          62.6479   85.1506   13.3484 C.3     1  UNL1        0.0899
     23 N          62.1713   85.6727   12.0254 N.3     1  UNL1       -0.2665
     24 C          62.5242   84.9464   10.7612 C.3     1  UNL1        0.0899
     25 C          63.3538   83.6980   10.8201 C.3     1  UNL1        0.0897
@<TRIPOS>BOND
     1    19    20    1
     2    20    21    1
     3    21    22    1
     4    22    23    1
     5    23    18    1
     6    18     1    1
     7     1     2   ar
     8     2     3   ar
     9     3     4   ar
    10     4     5   ar
    11     5     6   ar
    12     5     7    1
    13     7     8    2
    14     8     9    1
    15     9    10    2
    16    10    13    1
    17    13    14   ar
    18    14    15   ar
    19    15    16   ar
    20    16    17   ar
    21    10    11    1
    22    11    12    1
    23    23    24    1
    24    24    25    1
    25    25    20    1
    26     6     1   ar
    27    11     7    1
    28    12     4    1
    29    17    13   ar
@<TRIPOS>MOLECULE
*****
 25 29 0 0 0
SMALL
GASTEIGER

@<TRIPOS>ATOM
      1 C          61.3917   89.9825   10.8068 C.ar    1  UNL1       -0.0061
      2 C          61.1124   89.4823   12.1931 C.ar    1  UNL1       -0.0032
      3 C          62.0696   89.7866   13.3072 C.ar    1  UNL1       -0.0045
      4 C          63.3061   90.5910   13.0349 C.ar    1  UNL1       -0.0202
      5 C          63.5853   91.0911   11.6486 C.ar    1  UNL1        0.0115
      6 C          62.6281   90.7868   10.5346 C.ar    1  UNL1       -0.0020
      7 C          64.8762   91.8544   11.6825 C.2     1  UNL1        0.0858
      8 N          65.8465   92.6352   10.8467 N.2     1  UNL1       -0.1523
      9 N          66.9648   93.0894   11.7373 N.2     1  UNL1       -0.1523
     10 C          66.6855   92.5892   13.1236 C.2     1  UNL1        0.0866
     11 C          65.3947   91.8260   13.0898 C.3     1  UNL1        0.0883
     12 C          64.4244   91.0451   13.9256 C.3     1  UNL1        0.0384
     13 C          67.5460   92.8131   14.3316 C.ar    1  UNL1        0.0227
     14 C          68.2922   91.7561   15.0908 C.ar    1  UNL1        0.0087
     15 C          69.0188   92.4230   16.2210 C.ar    1  UNL1        0.0355
     16 S          68.7216   93.8921   16.1604 S.2     1  UNL1       -0.0859
     17 C          67.8114   94.1332   14.9927 C.ar    1  UNL1        0.0367
     18 C          60.4344   89.6782    9.6927 C.3     1  UNL1        0.0992
     19 C          60.8858   84.5111    6.6766 C.3     1  UNL1        0.0897
     20 N          60.7730   85.8029    7.4306 N.3     1  UNL1       -0.2691
     21 C          61.7938   86.1553    8.4716 C.3     1  UNL1        0.0897
     22 C          61.6810   87.4471    9.2256 C.3     1  UNL1        0.0899
     23 N          60.5473   88.3865    8.9387 N.3     1  UNL1       -0.2665
     24 C          59.5264   88.0340    7.8977 C.3     1  UNL1        0.0899
     25 C          59.6392   86.7422    7.1437 C.3     1  UNL1        0.0897
@<TRIPOS>BOND
     1    19    20    1
     2    20    21    1
     3    21    22    1
     4    22    23    1
     5    23    18    1
     6    18     1    1
     7     1     2   ar
     8     2     3   ar
     9     3     4   ar
    10     4     5   ar
    11     5     6   ar
    12     5     7    1
    13     7     8    2
    14     8     9    1
    15     9    10    2
    16    10    13    1
    17    13    14   ar
    18    14    15   ar
    19    15    16   ar
    20    16    17   ar
    21    10    11    1
    22    11    12    1
    23    23    24    1
    24    24    25    1
    25    25    20    1
    26     6     1   ar
    27    11     7    1
    28    12     4    1
    29    17    13   ar
@<TRIPOS>MOLECULE
*****
 25 29 0 0 0
SMALL
GASTEIGER

@<TRIPOS>ATOM
      1 C          59.2607   89.0695    7.2553 C.ar    1  UNL1       -0.0061
      2 C          59.0167   87.6488    6.8404 C.ar    1  UNL1       -0.0032
      3 C          59.6312   86.5239    7.6194 C.ar    1  UNL1       -0.0045
      4 C          60.4896   86.8196    8.8134 C.ar    1  UNL1       -0.0202
      5 C          60.7336   88.2403    9.2284 C.ar    1  UNL1        0.0115
      6 C          60.1191   89.3652    8.4493 C.ar    1  UNL1       -0.0020
      7 C          61.6177   88.2239   10.4400 C.2     1  UNL1        0.0858
      8 N          62.3149   89.0919   11.4452 N.2     1  UNL1       -0.1523
      9 N          63.0483   88.1975   12.4004 N.2     1  UNL1       -0.1523
     10 C          62.8043   86.7769   11.9854 C.2     1  UNL1        0.0866
     11 C          61.9202   86.7932   10.7738 C.3     1  UNL1        0.0883
     12 C          61.2230   85.9252    9.7686 C.3     1  UNL1        0.0384
     13 C          63.3489   85.5546   12.6631 C.ar    1  UNL1        0.0227
     14 C          63.3416   84.1612   12.1074 C.ar    1  UNL1        0.0087
     15 C          63.9846   83.2564   13.1163 C.ar    1  UNL1        0.0355
     16 S          64.3893   84.0905   14.2956 S.2     1  UNL1       -0.0859
     17 C          63.9964   85.5108   14.0155 C.ar    1  UNL1        0.0367
     18 C          58.6462   90.1945    6.4763 C.3     1  UNL1        0.0992
     19 C          61.8222   92.9781    2.2144 C.3     1  UNL1        0.0897
     20 N          61.0282   92.2822    3.2799 N.3     1  UNL1       -0.2691
     21 C          59.5836   92.6293    3.4858 C.3     1  UNL1        0.0897
     22 C          58.7895   91.9334    4.5513 C.3     1  UNL1        0.0899
     23 N          59.4402   90.8904    5.4108 N.3     1  UNL1       -0.2665
     24 C          60.8849   90.5433    5.2048 C.3     1  UNL1        0.0899
     25 C          61.6789   91.2392    4.1394 C.3     1  UNL1        0.0897
@<TRIPOS>BOND
     1    19    20    1
     2    20    21    1
     3    21    22    1
     4    22    23    1
     5    23    18    1
     6    18     1    1
     7     1     2   ar
     8     2     3   ar
     9     3     4   ar
    10     4     5   ar
    11     5     6   ar
    12     5     7    1
    13     7     8    2
    14     8     9    1
    15     9    10    2
    16    10    13    1
    17    13    14   ar
    18    14    15   ar
    19    15    16   ar
    20    16    17   ar
    21    10    11    1
    22    11    12    1
    23    23    24    1
    24    24    25    1
    25    25    20    1
    26     6     1   ar
    27    11     7    1
    28    12     4    1
    29    17    13   ar
@<TRIPOS>MOLECULE
*****
 25 29 0 0 0
SMALL
GASTEIGER

@<TRIPOS>ATOM
      1 C          61.5384   90.0220   10.5875 C.ar    1  UNL1       -0.0061
      2 C          62.4209   90.7485    9.6163 C.ar    1  UNL1       -0.0032
      3 C          63.6632   91.4354   10.1007 C.ar    1  UNL1       -0.0045
      4 C          64.0230   91.3959   11.5564 C.ar    1  UNL1       -0.0202
      5 C          63.1404   90.6695   12.5276 C.ar    1  UNL1        0.0115
      6 C          61.8981   89.9825   12.0432 C.ar    1  UNL1       -0.0020
      7 C          63.7474   90.8005   13.8931 C.2     1  UNL1        0.0858
      8 N          63.5770   90.4326   15.3372 N.2     1  UNL1       -0.1523
      9 N          64.7294   91.0126   16.1024 N.2     1  UNL1       -0.1523
     10 C          65.6120   91.7390   15.1312 C.2     1  UNL1        0.0866
     11 C          65.0051   91.6080   13.7657 C.3     1  UNL1        0.0883
     12 C          65.1755   91.9760   12.3216 C.3     1  UNL1        0.0384
     13 C          66.8790   92.4684   15.4665 C.ar    1  UNL1        0.0227
     14 C          68.0074   91.9381   16.3006 C.ar    1  UNL1        0.0087
     15 C          69.0660   92.9981   16.3763 C.ar    1  UNL1        0.0355
     16 S          68.5919   94.1836   15.5889 S.2     1  UNL1       -0.0859
     17 C          67.2403   93.8563   15.0266 C.ar    1  UNL1        0.0367
     18 C          60.2960   89.3350   10.1030 C.3     1  UNL1        0.0992
     19 C          60.7225   84.5049    6.5693 C.3     1  UNL1        0.0897
     20 N          60.6159   85.7124    7.4527 N.3     1  UNL1       -0.2691
     21 C          61.7006   86.0149    8.4436 C.3     1  UNL1        0.0897
     22 C          61.5940   87.2225    9.3271 C.3     1  UNL1        0.0899
     23 N          60.4026   88.1275    9.2196 N.3     1  UNL1       -0.2665
     24 C          59.3179   87.8250    8.2287 C.3     1  UNL1        0.0899
     25 C          59.4245   86.6175    7.3453 C.3     1  UNL1        0.0897
@<TRIPOS>BOND
     1    19    20    1
     2    20    21    1
     3    21    22    1
     4    22    23    1
     5    23    18    1
     6    18     1    1
     7     1     2   ar
     8     2     3   ar
     9     3     4   ar
    10     4     5   ar
    11     5     6   ar
    12     5     7    1
    13     7     8    2
    14     8     9    1
    15     9    10    2
    16    10    13    1
    17    13    14   ar
    18    14    15   ar
    19    15    16   ar
    20    16    17   ar
    21    10    11    1
    22    11    12    1
    23    23    24    1
    24    24    25    1
    25    25    20    1
    26     6     1   ar
    27    11     7    1
    28    12     4    1
    29    17    13   ar
