@<TRIPOS>MOLECULE
*****
 40 43 0 0 0
SMALL
GASTEIGER

@<TRIPOS>ATOM
      1 N          64.2442   90.4623   13.1171 N.am    1  UNL1       -0.2770
      2 C          63.1245   89.8989   12.2931 C.2     1  UNL1        0.2254
      3 O          62.2049   88.8699   12.8808 O.2     1  UNL1       -0.2749
      4 C          62.9245   90.3646   10.8814 C.3     1  UNL1        0.0780
      5 C          62.3339   90.4878    9.5081 C.3     1  UNL1        0.0096
      6 C          63.8441   91.3937   10.2936 C.3     1  UNL1        0.0154
      7 C          64.9637   91.9570   11.1176 C.3     1  UNL1        0.0452
      8 C          65.1638   91.4913   12.5294 C.3     1  UNL1        0.1018
      9 C          65.8834   92.9860   10.5299 C.ar    1  UNL1       -0.0197
     10 C          67.2624   92.5947   10.0884 C.ar    1  UNL1       -0.0042
     11 C          68.1820   93.6237    9.5007 C.ar    1  UNL1        0.0005
     12 C          67.7226   95.0440    9.3544 C.ar    1  UNL1        0.0114
     13 C          66.3435   95.4354    9.7959 C.ar    1  UNL1        0.0574
     14 CL         65.8840   96.8558    9.6497 Cl      1  UNL1       -0.0823
     15 C          65.4239   94.4064   10.3837 C.ar    1  UNL1        0.0072
     16 C          66.2835   92.0546   13.3535 C.ar    1  UNL1       -0.0039
     17 C          67.5394   91.2597   13.5556 C.ar    1  UNL1       -0.0018
     18 C          68.6590   91.8230   14.3796 C.ar    1  UNL1        0.0111
     19 C          68.5228   93.1812   15.0016 C.ar    1  UNL1        0.0577
     20 CL         69.6424   93.7444   15.8256 Cl      1  UNL1       -0.0822
     21 C          67.2669   93.9761   14.7995 C.ar    1  UNL1        0.0111
     22 C          66.1472   93.4127   13.9754 C.ar    1  UNL1       -0.0018
     23 C          64.4442   89.9966   14.5289 C.3     1  UNL1        0.0991
     24 C          64.1676   90.9275   15.6721 C.3     1  UNL1        0.0200
     25 C          63.2313   91.4614   16.7152 C.3     1  UNL1        0.0018
     26 C          64.6248   92.0061   16.6088 C.3     1  UNL1        0.0018
     27 C          64.9209   88.6000   14.7976 C.3     1  UNL1        0.1703
     28 S          64.0702   87.6578   15.5967 S.O2    1  UNL1       -0.0115
     29 O          64.9849   86.5252   15.2354 O.2     1  UNL1       -0.1730
     30 O          63.1555   88.7903   15.9581 O.2     1  UNL1       -0.1730
     31 C          62.8068   87.8469   17.2903 C.3     1  UNL1        0.0236
     32 C          63.2195   86.7157   16.3959 C.3     1  UNL1        0.1108
     33 C          63.6321   85.5844   15.5015 C.3     1  UNL1        0.0236
     34 C          62.3687   85.7735   17.1950 C.3     1  UNL1        0.0236
     35 C          61.7997   89.3784   10.9921 C.3     1  UNL1        0.0934
     36 C          60.3999   89.7957   10.6509 C.2     1  UNL1        0.2198
     37 N          59.6186   90.6505   11.6044 N.am    1  UNL1       -0.3288
     38 O          59.7814   89.3583    9.3562 O.2     1  UNL1       -0.2753
     39 H          60.0246   90.9375   12.4541 H       1  UNL1        0.1449
     40 H          58.6999   90.9243   11.3805 H       1  UNL1        0.1449
@<TRIPOS>BOND
     1    31    32    1
     2    32    33    1
     3    32    34    1
     4    32    28    1
     5    28    29    2
     6    28    30    2
     7    28    27    1
     8    23    27    1
     9    23    24    1
    10    24    25    1
    11    25    26    1
    12    23     1    1
    13     1     2   am
    14     2     3    2
    15     2     4    1
    16     4     5    1
    17     4    35    1
    18    35    36    1
    19    36    37   am
    20    36    38    2
    21     4     6    1
    22     6     7    1
    23     7     9    1
    24     9    10   ar
    25    10    11   ar
    26    11    12   ar
    27    12    13   ar
    28    13    14    1
    29    13    15   ar
    30     7     8    1
    31     8    16    1
    32    16    17   ar
    33    17    18   ar
    34    18    19   ar
    35    19    20    1
    36    19    21   ar
    37    21    22   ar
    38    26    24    1
    39     8     1    1
    40    22    16   ar
    41    15     9   ar
    42    37    39    1
    43    37    40    1
@<TRIPOS>MOLECULE
*****
 40 43 0 0 0
SMALL
GASTEIGER

@<TRIPOS>ATOM
      1 N          63.9041   90.0343   13.0129 N.am    1  UNL1       -0.2770
      2 C          62.7796   89.6297   12.1063 C.2     1  UNL1        0.2254
      3 O          61.8607   88.5126   12.5037 O.2     1  UNL1       -0.2749
      4 C          62.5740   90.3420   10.8024 C.3     1  UNL1        0.0780
      5 C          61.9774   90.7110    9.4766 C.3     1  UNL1        0.0096
      6 C          63.4929   91.4591   10.4051 C.3     1  UNL1        0.0154
      7 C          64.6174   91.8637   11.3116 C.3     1  UNL1        0.0452
      8 C          64.8229   91.1513   12.6155 C.3     1  UNL1        0.1018
      9 C          65.5363   92.9807   10.9142 C.ar    1  UNL1       -0.0197
     10 C          66.6630   92.7211    9.9587 C.ar    1  UNL1       -0.0042
     11 C          67.5819   93.8381    9.5614 C.ar    1  UNL1        0.0005
     12 C          67.3740   95.2148   10.1195 C.ar    1  UNL1        0.0114
     13 C          66.2473   95.4744   11.0749 C.ar    1  UNL1        0.0574
     14 CL         66.0394   96.8511   11.6331 Cl      1  UNL1       -0.0823
     15 C          65.3284   94.3574   11.4723 C.ar    1  UNL1        0.0072
     16 C          65.9475   91.5559   13.5221 C.ar    1  UNL1       -0.0039
     17 C          65.6512   92.2201   14.8340 C.ar    1  UNL1       -0.0018
     18 C          66.7756   92.6247   15.7406 C.ar    1  UNL1        0.0111
     19 C          68.1964   92.3652   15.3353 C.ar    1  UNL1        0.0577
     20 CL         69.3208   92.7698   16.2419 Cl      1  UNL1       -0.0822
     21 C          68.4926   91.7010   14.0233 C.ar    1  UNL1        0.0111
     22 C          67.3681   91.2964   13.1167 C.ar    1  UNL1       -0.0018
     23 C          64.1097   89.3219   14.3168 C.3     1  UNL1        0.0991
     24 C          63.5665   89.9088   15.5859 C.3     1  UNL1        0.0200
     25 C          62.7869   89.7562   16.8582 C.3     1  UNL1        0.0018
     26 C          63.4055   91.0780   16.5116 C.3     1  UNL1        0.0018
     27 C          64.8584   88.0226   14.3517 C.3     1  UNL1        0.1703
     28 S          64.1198   86.7372   14.5807 S.O2    1  UNL1       -0.0115
     29 O          64.4788   86.7902   16.0361 O.2     1  UNL1       -0.1730
     30 O          63.7608   86.6843   13.1253 O.2     1  UNL1       -0.1730
     31 C          63.3974   85.7059   16.2879 C.3     1  UNL1        0.0236
     32 C          63.3813   85.4519   14.8096 C.3     1  UNL1        0.1108
     33 C          63.3651   85.1979   13.3314 C.3     1  UNL1        0.0236
     34 C          62.6427   84.1666   15.0386 C.3     1  UNL1        0.0236
     35 C          61.4479   89.3532   10.7393 C.3     1  UNL1        0.0934
     36 C          61.4036   88.3362    9.6376 C.2     1  UNL1        0.2198
     37 N          62.4407   87.2544    9.5733 N.am    1  UNL1       -0.3288
     38 O          60.3221   88.4011    8.6001 O.2     1  UNL1       -0.2753
     39 H          63.1505   87.2119   10.2542 H       1  UNL1        0.1449
     40 H          62.4117   86.5869    8.8502 H       1  UNL1        0.1449
@<TRIPOS>BOND
     1    31    32    1
     2    32    33    1
     3    32    34    1
     4    32    28    1
     5    28    29    2
     6    28    30    2
     7    28    27    1
     8    23    27    1
     9    23    24    1
    10    24    25    1
    11    25    26    1
    12    23     1    1
    13     1     2   am
    14     2     3    2
    15     2     4    1
    16     4     5    1
    17     4    35    1
    18    35    36    1
    19    36    37   am
    20    36    38    2
    21     4     6    1
    22     6     7    1
    23     7     9    1
    24     9    10   ar
    25    10    11   ar
    26    11    12   ar
    27    12    13   ar
    28    13    14    1
    29    13    15   ar
    30     7     8    1
    31     8    16    1
    32    16    17   ar
    33    17    18   ar
    34    18    19   ar
    35    19    20    1
    36    19    21   ar
    37    21    22   ar
    38    26    24    1
    39     8     1    1
    40    22    16   ar
    41    15     9   ar
    42    37    39    1
    43    37    40    1
@<TRIPOS>MOLECULE
*****
 40 43 0 0 0
SMALL
GASTEIGER

@<TRIPOS>ATOM
      1 N          62.8200   88.0861   12.3519 N.am    1  UNL1       -0.2770
      2 C          63.4169   88.3696   13.6985 C.2     1  UNL1        0.2254
      3 O          63.4621   89.7761   14.2177 O.2     1  UNL1       -0.2749
      4 C          63.9685   87.2466   14.5258 C.3     1  UNL1        0.0780
      5 C          64.6137   86.5250   15.6717 C.3     1  UNL1        0.0096
      6 C          63.9232   85.8401   14.0065 C.3     1  UNL1        0.0154
      7 C          63.3264   85.5565   12.6600 C.3     1  UNL1        0.0452
      8 C          62.7747   86.6795   11.8326 C.3     1  UNL1        0.1018
      9 C          63.2811   84.1500   12.1407 C.ar    1  UNL1       -0.0197
     10 C          63.9676   83.8035   10.8528 C.ar    1  UNL1       -0.0042
     11 C          63.9223   82.3970   10.3336 C.ar    1  UNL1        0.0005
     12 C          63.1906   81.3369   11.1022 C.ar    1  UNL1        0.0114
     13 C          62.5042   81.6834   12.3901 C.ar    1  UNL1        0.0574
     14 CL         61.7725   80.6233   13.1588 Cl      1  UNL1       -0.0823
     15 C          62.5494   83.0899   12.9094 C.ar    1  UNL1        0.0072
     16 C          62.1778   86.3960   10.4860 C.ar    1  UNL1       -0.0039
     17 C          63.0543   85.9366    9.3588 C.ar    1  UNL1       -0.0018
     18 C          62.4575   85.6531    8.0122 C.ar    1  UNL1        0.0111
     19 C          60.9841   85.8291    7.7927 C.ar    1  UNL1        0.0577
     20 CL         60.3872   85.5456    6.4462 Cl      1  UNL1       -0.0822
     21 C          60.1075   86.2885    8.9200 C.ar    1  UNL1        0.0111
     22 C          60.7045   86.5720   10.2666 C.ar    1  UNL1       -0.0018
     23 C          62.2683   89.2091   11.5245 C.3     1  UNL1        0.0991
     24 C          60.8317   89.6142   11.6726 C.3     1  UNL1        0.0200
     25 C          59.5011   89.4588   12.3474 C.3     1  UNL1        0.0018
     26 C          59.6739   90.4713   11.2542 C.3     1  UNL1        0.0018
     27 C          63.1533   89.9270   10.5491 C.3     1  UNL1        0.1703
     28 S          63.9645   91.1058   10.9992 S.O2    1  UNL1       -0.0115
     29 O          64.5408   90.2837   12.1136 O.2     1  UNL1       -0.1730
     30 O          63.3881   91.9278    9.8848 O.2     1  UNL1       -0.1730
     31 C          64.8066   91.7310   12.8430 C.3     1  UNL1        0.0236
     32 C          64.7756   92.2845   11.4492 C.3     1  UNL1        0.1108
     33 C          64.7445   92.8380   10.0555 C.3     1  UNL1        0.0236
     34 C          65.5867   93.4632   11.8993 C.3     1  UNL1        0.0236
     35 C          64.2378   88.4025   15.4430 C.3     1  UNL1        0.0934
     36 C          63.2453   88.7614   16.5089 C.2     1  UNL1        0.2198
     37 N          63.1298   90.1812   16.9787 N.am    1  UNL1       -0.3288
     38 O          62.3682   87.7004   17.1048 O.2     1  UNL1       -0.2753
     39 H          63.7054   90.8776   16.5876 H       1  UNL1        0.1449
     40 H          62.4783   90.4168   17.6783 H       1  UNL1        0.1449
@<TRIPOS>BOND
     1    31    32    1
     2    32    33    1
     3    32    34    1
     4    32    28    1
     5    28    29    2
     6    28    30    2
     7    28    27    1
     8    23    27    1
     9    23    24    1
    10    24    25    1
    11    25    26    1
    12    23     1    1
    13     1     2   am
    14     2     3    2
    15     2     4    1
    16     4     5    1
    17     4    35    1
    18    35    36    1
    19    36    37   am
    20    36    38    2
    21     4     6    1
    22     6     7    1
    23     7     9    1
    24     9    10   ar
    25    10    11   ar
    26    11    12   ar
    27    12    13   ar
    28    13    14    1
    29    13    15   ar
    30     7     8    1
    31     8    16    1
    32    16    17   ar
    33    17    18   ar
    34    18    19   ar
    35    19    20    1
    36    19    21   ar
    37    21    22   ar
    38    26    24    1
    39     8     1    1
    40    22    16   ar
    41    15     9   ar
    42    37    39    1
    43    37    40    1
@<TRIPOS>MOLECULE
*****
 40 43 0 0 0
SMALL
GASTEIGER

@<TRIPOS>ATOM
      1 N          65.1200   91.5081   13.5788 N.am    1  UNL1       -0.2770
      2 C          65.4259   92.5330   12.5272 C.2     1  UNL1        0.2254
      3 O          66.4227   93.6188   12.8056 O.2     1  UNL1       -0.2749
      4 C          64.7350   92.4722   11.1972 C.3     1  UNL1        0.0780
      5 C          64.3429   92.8318    9.7947 C.3     1  UNL1        0.0096
      6 C          63.7382   91.3864   10.9188 C.3     1  UNL1        0.0154
      7 C          63.4323   90.3614   11.9704 C.3     1  UNL1        0.0452
      8 C          64.1232   90.4223   13.3004 C.3     1  UNL1        0.1018
      9 C          62.4355   89.2757   11.6920 C.ar    1  UNL1       -0.0197
     10 C          60.9683   89.5875   11.6879 C.ar    1  UNL1       -0.0042
     11 C          59.9716   88.5017   11.4095 C.ar    1  UNL1        0.0005
     12 C          60.4420   87.1041   11.1353 C.ar    1  UNL1        0.0114
     13 C          61.9092   86.7922   11.1394 C.ar    1  UNL1        0.0574
     14 CL         62.3796   85.3945   10.8651 Cl      1  UNL1       -0.0823
     15 C          62.9059   87.8780   11.4178 C.ar    1  UNL1        0.0072
     16 C          63.8174   89.3973   14.3521 C.ar    1  UNL1       -0.0039
     17 C          62.8437   89.7149   15.4481 C.ar    1  UNL1       -0.0018
     18 C          62.5378   88.6900   16.4997 C.ar    1  UNL1        0.0111
     19 C          63.2056   87.3475   16.4554 C.ar    1  UNL1        0.0577
     20 CL         62.8998   86.3226   17.5071 Cl      1  UNL1       -0.0822
     21 C          64.1793   87.0300   15.3594 C.ar    1  UNL1        0.0111
     22 C          64.4851   88.0549   14.3077 C.ar    1  UNL1       -0.0018
     23 C          65.8109   91.5689   14.9088 C.3     1  UNL1        0.0991
     24 C          65.0726   92.0681   16.1154 C.3     1  UNL1        0.0200
     25 C          63.7821   92.3082   16.8413 C.3     1  UNL1        0.0018
     26 C          65.0843   92.6925   17.4791 C.3     1  UNL1        0.0018
     27 C          67.2401   91.1306   15.0323 C.3     1  UNL1        0.1703
     28 S          68.3297   92.1533   15.1630 S.O2    1  UNL1       -0.0115
     29 O          68.0874   92.2225   16.6417 O.2     1  UNL1       -0.1730
     30 O          68.5719   92.0841   13.6844 O.2     1  UNL1       -0.1730
     31 C          68.5870   93.9361   16.2834 C.3     1  UNL1        0.0236
     32 C          69.4192   93.1760   15.2937 C.3     1  UNL1        0.1108
     33 C          70.2513   92.4158   14.3040 C.3     1  UNL1        0.0236
     34 C          70.5087   94.1986   15.4244 C.3     1  UNL1        0.0236
     35 C          65.5956   93.6828   10.9884 C.3     1  UNL1        0.0934
     36 C          66.8059   93.5997   10.1063 C.2     1  UNL1        0.2198
     37 N          67.8918   92.6115   10.4140 N.am    1  UNL1       -0.3288
     38 O          66.9305   94.5047    8.9166 O.2     1  UNL1       -0.2753
     39 H          67.8100   92.0176   11.1949 H       1  UNL1        0.1449
     40 H          68.6862   92.5569    9.8351 H       1  UNL1        0.1449
@<TRIPOS>BOND
     1    31    32    1
     2    32    33    1
     3    32    34    1
     4    32    28    1
     5    28    29    2
     6    28    30    2
     7    28    27    1
     8    23    27    1
     9    23    24    1
    10    24    25    1
    11    25    26    1
    12    23     1    1
    13     1     2   am
    14     2     3    2
    15     2     4    1
    16     4     5    1
    17     4    35    1
    18    35    36    1
    19    36    37   am
    20    36    38    2
    21     4     6    1
    22     6     7    1
    23     7     9    1
    24     9    10   ar
    25    10    11   ar
    26    11    12   ar
    27    12    13   ar
    28    13    14    1
    29    13    15   ar
    30     7     8    1
    31     8    16    1
    32    16    17   ar
    33    17    18   ar
    34    18    19   ar
    35    19    20    1
    36    19    21   ar
    37    21    22   ar
    38    26    24    1
    39     8     1    1
    40    22    16   ar
    41    15     9   ar
    42    37    39    1
    43    37    40    1
@<TRIPOS>MOLECULE
*****
 40 43 0 0 0
SMALL
GASTEIGER

@<TRIPOS>ATOM
      1 N          61.7356   87.5326   10.9400 N.am    1  UNL1       -0.2770
      2 C          61.2844   87.6118    9.5116 C.2     1  UNL1        0.2254
      3 O          60.7390   88.8988    8.9676 O.2     1  UNL1       -0.2749
      4 C          61.3787   86.4039    8.6273 C.3     1  UNL1        0.0780
      5 C          61.2705   85.5386    7.4069 C.3     1  UNL1        0.0096
      6 C          61.9242   85.1168    9.1714 C.3     1  UNL1        0.0154
      7 C          62.3753   85.0377   10.5997 C.3     1  UNL1        0.0452
      8 C          62.2810   86.2456   11.4840 C.3     1  UNL1        0.1018
      9 C          62.9207   83.7506   11.1437 C.ar    1  UNL1       -0.0197
     10 C          64.3287   83.3402   10.8291 C.ar    1  UNL1       -0.0042
     11 C          64.8742   82.0531   11.3731 C.ar    1  UNL1        0.0005
     12 C          64.0116   81.1765   12.2318 C.ar    1  UNL1        0.0114
     13 C          62.6036   81.5869   12.5464 C.ar    1  UNL1        0.0574
     14 CL         61.7410   80.7102   13.4052 Cl      1  UNL1       -0.0823
     15 C          62.0582   82.8739   12.0024 C.ar    1  UNL1        0.0072
     16 C          62.7321   86.1664   12.9124 C.ar    1  UNL1       -0.0039
     17 C          63.8992   86.9865   13.3768 C.ar    1  UNL1       -0.0018
     18 C          64.3503   86.9074   14.8051 C.ar    1  UNL1        0.0111
     19 C          63.6345   86.0083   15.7691 C.ar    1  UNL1        0.0577
     20 CL         64.0856   85.9292   17.1975 Cl      1  UNL1       -0.0822
     21 C          62.4675   85.1882   15.3047 C.ar    1  UNL1        0.0111
     22 C          62.0163   85.2674   13.8763 C.ar    1  UNL1       -0.0018
     23 C          61.6413   88.7406   11.8243 C.3     1  UNL1        0.0991
     24 C          60.3193   89.4194   12.0282 C.3     1  UNL1        0.0200
     25 C          58.9632   89.4568   12.6683 C.3     1  UNL1        0.0018
     26 C          59.3857   90.5579   11.7414 C.3     1  UNL1        0.0018
     27 C          62.8689   89.2696   12.5048 C.3     1  UNL1        0.1703
     28 S          63.5569   90.4898   11.9682 S.O2    1  UNL1       -0.0115
     29 O          63.9467   90.8831   13.3622 O.2     1  UNL1       -0.1730
     30 O          63.1671   90.0965   10.5742 O.2     1  UNL1       -0.1730
     31 C          63.5091   91.5540   10.1338 C.3     1  UNL1        0.0236
     32 C          64.2449   91.7099   11.4316 C.3     1  UNL1        0.1108
     33 C          64.9806   91.8658   12.7294 C.3     1  UNL1        0.0236
     34 C          64.9328   92.9300   10.8950 C.3     1  UNL1        0.0236
     35 C          60.7957   87.3904    7.6594 C.3     1  UNL1        0.0934
     36 C          59.3073   87.5247    7.5304 C.2     1  UNL1        0.2198
     37 N          58.7186   88.7267    6.8530 N.am    1  UNL1       -0.3288
     38 O          58.4076   86.4570    8.0787 O.2     1  UNL1       -0.2753
     39 H          59.3092   89.4274    6.4931 H       1  UNL1        0.1449
     40 H          57.7418   88.8148    6.7683 H       1  UNL1        0.1449
@<TRIPOS>BOND
     1    31    32    1
     2    32    33    1
     3    32    34    1
     4    32    28    1
     5    28    29    2
     6    28    30    2
     7    28    27    1
     8    23    27    1
     9    23    24    1
    10    24    25    1
    11    25    26    1
    12    23     1    1
    13     1     2   am
    14     2     3    2
    15     2     4    1
    16     4     5    1
    17     4    35    1
    18    35    36    1
    19    36    37   am
    20    36    38    2
    21     4     6    1
    22     6     7    1
    23     7     9    1
    24     9    10   ar
    25    10    11   ar
    26    11    12   ar
    27    12    13   ar
    28    13    14    1
    29    13    15   ar
    30     7     8    1
    31     8    16    1
    32    16    17   ar
    33    17    18   ar
    34    18    19   ar
    35    19    20    1
    36    19    21   ar
    37    21    22   ar
    38    26    24    1
    39     8     1    1
    40    22    16   ar
    41    15     9   ar
    42    37    39    1
    43    37    40    1
@<TRIPOS>MOLECULE
*****
 40 43 0 0 0
SMALL
GASTEIGER

@<TRIPOS>ATOM
      1 N          63.3710   85.7466   12.9617 N.am    1  UNL1       -0.2770
      2 C          63.9409   84.3828   13.2171 C.2     1  UNL1        0.2254
      3 O          64.6453   84.0944   14.5096 O.2     1  UNL1       -0.2749
      4 C          63.8065   83.3075   12.1800 C.3     1  UNL1        0.0780
      5 C          63.9318   81.9708   11.5111 C.3     1  UNL1        0.0096
      6 C          63.1021   83.5959   10.8875 C.3     1  UNL1        0.0154
      7 C          62.5321   84.9597   10.6321 C.3     1  UNL1        0.0452
      8 C          62.6666   86.0350   11.6692 C.3     1  UNL1        0.1018
      9 C          61.8277   85.2481    9.3395 C.ar    1  UNL1       -0.0197
     10 C          60.5781   86.0777    9.3353 C.ar    1  UNL1       -0.0042
     11 C          59.8737   86.3662    8.0428 C.ar    1  UNL1        0.0005
     12 C          60.4189   85.8250    6.7545 C.ar    1  UNL1        0.0114
     13 C          61.6686   84.9954    6.7587 C.ar    1  UNL1        0.0574
     14 CL         62.2139   84.4542    5.4704 Cl      1  UNL1       -0.0823
     15 C          62.3730   84.7070    8.0512 C.ar    1  UNL1        0.0072
     16 C          62.0966   87.3988   11.4138 C.ar    1  UNL1       -0.0039
     17 C          62.9110   88.4280   10.6875 C.ar    1  UNL1       -0.0018
     18 C          62.3411   89.7918   10.4320 C.ar    1  UNL1        0.0111
     19 C          60.9567   90.1264   10.9029 C.ar    1  UNL1        0.0577
     20 CL         60.3868   91.4902   10.6475 Cl      1  UNL1       -0.0822
     21 C          60.1423   89.0972   11.6292 C.ar    1  UNL1        0.0111
     22 C          60.7123   87.7334   11.8846 C.ar    1  UNL1       -0.0018
     23 C          63.5054   86.8219   13.9988 C.3     1  UNL1        0.0991
     24 C          63.2689   86.5027   15.4452 C.3     1  UNL1        0.0200
     25 C          62.3437   86.0807   16.5479 C.3     1  UNL1        0.0018
     26 C          63.7844   86.3718   16.8477 C.3     1  UNL1        0.0018
     27 C          63.8763   88.2165   13.5895 C.3     1  UNL1        0.1703
     28 S          63.9190   89.3123   14.6130 S.O2    1  UNL1       -0.0115
     29 O          62.4925   89.6572   14.3033 O.2     1  UNL1       -0.1730
     30 O          65.3456   88.9674   14.9227 O.2     1  UNL1       -0.1730
     31 C          62.9097   89.7004   16.4379 C.3     1  UNL1        0.0236
     32 C          63.9617   90.4080   15.6364 C.3     1  UNL1        0.1108
     33 C          65.0138   91.1156   14.8349 C.3     1  UNL1        0.0236
     34 C          64.0045   91.5037   16.6599 C.3     1  UNL1        0.0236
     35 C          64.5544   82.5548   13.2402 C.3     1  UNL1        0.0934
     36 C          63.8316   81.5737   14.1148 C.2     1  UNL1        0.2198
     37 N          62.5786   81.9866   14.8287 N.am    1  UNL1       -0.3288
     38 O          64.3618   80.1797   14.2756 O.2     1  UNL1       -0.2753
     39 H          62.2306   82.9015   14.7231 H       1  UNL1        0.1449
     40 H          62.1041   81.3426   15.4027 H       1  UNL1        0.1449
@<TRIPOS>BOND
     1    31    32    1
     2    32    33    1
     3    32    34    1
     4    32    28    1
     5    28    29    2
     6    28    30    2
     7    28    27    1
     8    23    27    1
     9    23    24    1
    10    24    25    1
    11    25    26    1
    12    23     1    1
    13     1     2   am
    14     2     3    2
    15     2     4    1
    16     4     5    1
    17     4    35    1
    18    35    36    1
    19    36    37   am
    20    36    38    2
    21     4     6    1
    22     6     7    1
    23     7     9    1
    24     9    10   ar
    25    10    11   ar
    26    11    12   ar
    27    12    13   ar
    28    13    14    1
    29    13    15   ar
    30     7     8    1
    31     8    16    1
    32    16    17   ar
    33    17    18   ar
    34    18    19   ar
    35    19    20    1
    36    19    21   ar
    37    21    22   ar
    38    26    24    1
    39     8     1    1
    40    22    16   ar
    41    15     9   ar
    42    37    39    1
    43    37    40    1
