@<TRIPOS>MOLECULE
*****
 28 31 0 0 0
SMALL
GASTEIGER

@<TRIPOS>ATOM
      1 C          63.8067   90.6593   13.7799 C.2     1  UNL1        0.2440
      2 O          63.3060   91.6190   12.7415 O.2     1  UNL1       -0.2731
      3 N          63.6934   89.1811   13.5518 N.am    1  UNL1       -0.2747
      4 C          63.0794   88.6626   12.2852 C.3     1  UNL1        0.1149
      5 C          62.9661   87.1843   12.0572 C.3     1  UNL1        0.1121
      6 N          63.4668   86.2247   13.0956 N.pl3   1  UNL1       -0.3071
      7 C          64.0808   86.7432   14.3621 C.3     1  UNL1        0.1121
      8 C          64.1941   88.2214   14.5902 C.3     1  UNL1        0.1149
      9 C          63.3535   84.7464   12.8675 C.2     1  UNL1        0.0295
     10 C          64.0783   84.1067   11.7206 C.2     1  UNL1        0.0120
     11 C          63.9650   82.6285   11.4926 C.2     1  UNL1        0.0216
     12 C          63.1269   81.7899   12.4115 C.2     1  UNL1        0.1008
     13 N          62.8285   80.3201   12.4365 N.2     1  UNL1       -0.1482
     14 N          61.9193   80.0515   13.5988 N.2     1  UNL1       -0.1467
     15 C          61.6558   81.3552   14.2923 C.2     1  UNL1        0.1198
     16 C          62.4021   82.4297   13.5585 C.2     1  UNL1        0.0238
     17 C          62.5154   83.9079   13.7865 C.3     1  UNL1        0.0705
     18 N          63.6241   91.1862   16.3174 N.3     1  UNL1       -0.3116
     19 C          64.4206   91.1778   15.0464 C.3     1  UNL1        0.1514
     20 H          62.6942   90.8073   16.1383 H       1  UNL1        0.1195
     21 H          63.5411   92.1432   16.6603 H       1  UNL1        0.1195
     22 C          65.8313   91.6880   15.0419 C.ar    1  UNL1        0.0013
     23 C          66.3433   92.4875   16.2032 C.ar    1  UNL1       -0.0025
     24 C          67.7539   92.9977   16.1988 C.ar    1  UNL1        0.0006
     25 C          68.6524   92.7085   15.0330 C.ar    1  UNL1        0.0114
     26 C          68.1403   91.9090   13.8717 C.ar    1  UNL1        0.0574
     27 CL         69.0387   91.6198   12.7059 Cl      1  UNL1       -0.0823
     28 C          66.7297   91.3988   13.8762 C.ar    1  UNL1        0.0089
@<TRIPOS>BOND
     1    18    19    1
     2    19     1    1
     3     1     2    2
     4     1     3   am
     5     3     4    1
     6     4     5    1
     7     5     6    1
     8     6     9    1
     9     9    10    2
    10    10    11    1
    11    11    12    2
    12    12    13    1
    13    13    14    2
    14    14    15    1
    15    15    16    2
    16    16    17    1
    17     6     7    1
    18     7     8    1
    19    19    22    1
    20    22    23   ar
    21    23    24   ar
    22    24    25   ar
    23    25    26   ar
    24    26    27    1
    25    26    28   ar
    26     8     3    1
    27    28    22   ar
    28    17     9    1
    29    16    12    1
    30    18    20    1
    31    18    21    1
@<TRIPOS>MOLECULE
*****
 28 31 0 0 0
SMALL
GASTEIGER

@<TRIPOS>ATOM
      1 C          62.8524   90.2238   12.0230 C.2     1  UNL1        0.2440
      2 O          62.0728   90.9737   10.9839 O.2     1  UNL1       -0.2731
      3 N          62.8594   88.7238   12.0180 N.am    1  UNL1       -0.2747
      4 C          62.0867   87.9737   10.9738 C.3     1  UNL1        0.1149
      5 C          62.0937   86.4737   10.9689 C.3     1  UNL1        0.1121
      6 N          62.8733   85.7239   12.0080 N.pl3   1  UNL1       -0.3071
      7 C          63.6460   86.4740   13.0522 C.3     1  UNL1        0.1121
      8 C          63.6390   87.9739   13.0572 C.3     1  UNL1        0.1149
      9 C          62.8803   84.2238   12.0030 C.2     1  UNL1        0.0295
     10 C          63.4946   83.4805   10.8542 C.2     1  UNL1        0.0120
     11 C          63.5015   81.9805   10.8493 C.2     1  UNL1        0.0216
     12 C          62.8942   81.2239   11.9932 C.2     1  UNL1        0.1008
     13 N          62.7543   79.7551   12.2636 N.2     1  UNL1       -0.1482
     14 N          62.0535   79.5908   13.5796 N.2     1  UNL1       -0.1467
     15 C          61.7603   80.9580   14.1226 C.2     1  UNL1        0.1198
     16 C          62.2798   81.9673   13.1421 C.2     1  UNL1        0.0238
     17 C          62.2729   83.4673   13.1470 C.3     1  UNL1        0.0705
     18 N          63.0670   91.1215   14.4515 N.3     1  UNL1       -0.3116
     19 C          63.6251   90.9739   13.0672 C.3     1  UNL1        0.1514
     20 H          62.1618   90.6544   14.5048 H       1  UNL1        0.1195
     21 H          62.9518   92.1117   14.6679 H       1  UNL1        0.1195
     22 C          64.9561   91.5763   12.7269 C.ar    1  UNL1        0.0013
     23 C          65.1883   92.1614   11.3654 C.ar    1  UNL1       -0.0025
     24 C          66.5192   92.7638   11.0251 C.ar    1  UNL1        0.0006
     25 C          67.6179   92.7810   12.0462 C.ar    1  UNL1        0.0114
     26 C          67.3856   92.1959   13.4076 C.ar    1  UNL1        0.0574
     27 CL         68.4842   92.2131   14.4287 Cl      1  UNL1       -0.0823
     28 C          66.0547   91.5935   13.7480 C.ar    1  UNL1        0.0089
@<TRIPOS>BOND
     1    18    19    1
     2    19     1    1
     3     1     2    2
     4     1     3   am
     5     3     4    1
     6     4     5    1
     7     5     6    1
     8     6     9    1
     9     9    10    2
    10    10    11    1
    11    11    12    2
    12    12    13    1
    13    13    14    2
    14    14    15    1
    15    15    16    2
    16    16    17    1
    17     6     7    1
    18     7     8    1
    19    19    22    1
    20    22    23   ar
    21    23    24   ar
    22    24    25   ar
    23    25    26   ar
    24    26    27    1
    25    26    28   ar
    26     8     3    1
    27    28    22   ar
    28    17     9    1
    29    16    12    1
    30    18    20    1
    31    18    21    1
@<TRIPOS>MOLECULE
*****
 28 31 0 0 0
SMALL
GASTEIGER

@<TRIPOS>ATOM
      1 C          61.5426   88.9398   10.1359 C.2     1  UNL1        0.2440
      2 O          61.0076   89.4724    8.8397 O.2     1  UNL1       -0.2731
      3 N          62.5559   89.7296   10.9101 N.am    1  UNL1       -0.2747
      4 C          63.0342   91.0520   10.3881 C.3     1  UNL1        0.1149
      5 C          64.0476   91.8418   11.1624 C.3     1  UNL1        0.1121
      6 N          64.5825   91.3092   12.4585 N.pl3   1  UNL1       -0.3071
      7 C          64.1042   89.9868   12.9805 C.3     1  UNL1        0.1121
      8 C          63.0909   89.1970   12.2063 C.3     1  UNL1        0.1149
      9 C          65.5959   92.0990   13.2328 C.2     1  UNL1        0.0295
     10 C          65.8217   93.5470   12.9133 C.2     1  UNL1        0.0120
     11 C          66.8351   94.3367   13.6876 C.2     1  UNL1        0.0216
     12 C          67.6225   93.6783   14.7814 C.2     1  UNL1        0.1008
     13 N          68.6811   94.1980   15.7084 N.2     1  UNL1       -0.1482
     14 N          69.1095   93.0710   16.6009 N.2     1  UNL1       -0.1467
     15 C          68.3157   91.8549   16.2254 C.2     1  UNL1        0.1198
     16 C          67.3966   92.2303   15.1009 C.2     1  UNL1        0.0238
     17 C          66.3833   91.4406   14.3266 C.3     1  UNL1        0.0705
     18 N          59.7928   87.5392   11.4497 N.3     1  UNL1       -0.3116
     19 C          61.0643   87.6174   10.6579 C.3     1  UNL1        0.1514
     20 H          59.3880   88.4714   11.5358 H       1  UNL1        0.1195
     21 H          59.9929   87.1682   12.3785 H       1  UNL1        0.1195
     22 C          61.8576   86.3733   10.3880 C.ar    1  UNL1        0.0013
     23 C          62.3993   86.1126    9.0137 C.ar    1  UNL1       -0.0025
     24 C          63.1926   84.8685    8.7438 C.ar    1  UNL1        0.0006
     25 C          63.4443   83.8851    9.8481 C.ar    1  UNL1        0.0114
     26 C          62.9026   84.1457   11.2224 C.ar    1  UNL1        0.0574
     27 CL         63.1542   83.1624   12.3267 Cl      1  UNL1       -0.0823
     28 C          62.1092   85.3899   11.4923 C.ar    1  UNL1        0.0089
@<TRIPOS>BOND
     1    18    19    1
     2    19     1    1
     3     1     2    2
     4     1     3   am
     5     3     4    1
     6     4     5    1
     7     5     6    1
     8     6     9    1
     9     9    10    2
    10    10    11    1
    11    11    12    2
    12    12    13    1
    13    13    14    2
    14    14    15    1
    15    15    16    2
    16    16    17    1
    17     6     7    1
    18     7     8    1
    19    19    22    1
    20    22    23   ar
    21    23    24   ar
    22    24    25   ar
    23    25    26   ar
    24    26    27    1
    25    26    28   ar
    26     8     3    1
    27    28    22   ar
    28    17     9    1
    29    16    12    1
    30    18    20    1
    31    18    21    1
@<TRIPOS>MOLECULE
*****
 28 31 0 0 0
SMALL
GASTEIGER

@<TRIPOS>ATOM
      1 C          60.5405   88.9492   11.2473 C.2     1  UNL1        0.2440
      2 O          59.6140   88.2246   12.1783 O.2     1  UNL1       -0.2731
      3 N          61.7269   89.6867   11.7936 N.am    1  UNL1       -0.2747
      4 C          61.9870   89.6996   13.2708 C.3     1  UNL1        0.1149
      5 C          63.1735   90.4371   13.8170 C.3     1  UNL1        0.1121
      6 N          64.0999   91.1616   12.8861 N.pl3   1  UNL1       -0.3071
      7 C          63.8399   91.1487   11.4089 C.3     1  UNL1        0.1121
      8 C          62.6534   90.4113   10.8626 C.3     1  UNL1        0.1149
      9 C          65.2864   91.8992   13.4323 C.2     1  UNL1        0.0295
     10 C          65.6977   93.2095   12.8294 C.2     1  UNL1        0.0120
     11 C          66.8842   93.9471   13.3756 C.2     1  UNL1        0.0216
     12 C          67.6594   93.3740   14.5248 C.2     1  UNL1        0.1008
     13 N          68.8637   93.8693   15.2694 N.2     1  UNL1       -0.1482
     14 N          69.1967   92.8650   16.3326 N.2     1  UNL1       -0.1467
     15 C          68.1982   91.7489   16.2450 C.2     1  UNL1        0.1198
     16 C          67.2481   92.0636   15.1278 C.2     1  UNL1        0.0238
     17 C          66.0616   91.3261   14.5815 C.3     1  UNL1        0.0705
     18 N          59.7436   90.1620    9.0924 N.3     1  UNL1       -0.3116
     19 C          60.2804   88.9363    9.7701 C.3     1  UNL1        0.1514
     20 H          59.6157   90.9031    9.7814 H       1  UNL1        0.1195
     21 H          58.8474   89.9445    8.6566 H       1  UNL1        0.1195
     22 C          60.5573   87.6976    8.9707 C.ar    1  UNL1        0.0013
     23 C          59.5410   87.1967    7.9877 C.ar    1  UNL1       -0.0025
     24 C          59.8178   85.9581    7.1883 C.ar    1  UNL1        0.0006
     25 C          61.1109   85.2203    7.3718 C.ar    1  UNL1        0.0114
     26 C          62.1272   85.7212    8.3547 C.ar    1  UNL1        0.0574
     27 CL         63.4202   84.9836    8.5383 Cl      1  UNL1       -0.0823
     28 C          61.8503   86.9600    9.1542 C.ar    1  UNL1        0.0089
@<TRIPOS>BOND
     1    18    19    1
     2    19     1    1
     3     1     2    2
     4     1     3   am
     5     3     4    1
     6     4     5    1
     7     5     6    1
     8     6     9    1
     9     9    10    2
    10    10    11    1
    11    11    12    2
    12    12    13    1
    13    13    14    2
    14    14    15    1
    15    15    16    2
    16    16    17    1
    17     6     7    1
    18     7     8    1
    19    19    22    1
    20    22    23   ar
    21    23    24   ar
    22    24    25   ar
    23    25    26   ar
    24    26    27    1
    25    26    28   ar
    26     8     3    1
    27    28    22   ar
    28    17     9    1
    29    16    12    1
    30    18    20    1
    31    18    21    1
@<TRIPOS>MOLECULE
*****
 28 31 0 0 0
SMALL
GASTEIGER

@<TRIPOS>ATOM
      1 C          60.2994   88.3575   10.3892 C.2     1  UNL1        0.2440
      2 O          59.1521   87.9088   11.2450 O.2     1  UNL1       -0.2731
      3 N          61.3895   89.2024   10.9790 N.am    1  UNL1       -0.2747
      4 C          61.3322   89.5988   12.4245 C.3     1  UNL1        0.1149
      5 C          62.4223   90.4438   13.0142 C.3     1  UNL1        0.1121
      6 N          63.5695   90.8923   12.1585 N.pl3   1  UNL1       -0.3071
      7 C          63.6268   90.4960   10.7129 C.3     1  UNL1        0.1121
      8 C          62.5368   89.6511   10.1232 C.3     1  UNL1        0.1149
      9 C          64.6597   91.7374   12.7482 C.2     1  UNL1        0.0295
     10 C          65.3666   92.7505   11.8976 C.2     1  UNL1        0.0120
     11 C          66.4567   93.5955   12.4873 C.2     1  UNL1        0.0216
     12 C          66.8398   93.4272   13.9278 C.2     1  UNL1        0.1008
     13 N          67.8672   94.1119   14.7796 N.2     1  UNL1       -0.1482
     14 N          67.7951   93.5219   16.1568 N.2     1  UNL1       -0.1467
     15 C          66.7233   92.4725   16.1561 C.2     1  UNL1        0.1198
     16 C          66.1328   92.4140   14.7784 C.2     1  UNL1        0.0238
     17 C          65.0428   91.5691   14.1887 C.3     1  UNL1        0.0705
     18 N          59.5896   88.7446    7.9202 N.3     1  UNL1       -0.3116
     19 C          60.3567   87.9611    8.9437 C.3     1  UNL1        0.1514
     20 H          59.0894   89.5057    8.3795 H       1  UNL1        0.1195
     21 H          58.9215   88.1315    7.4533 H       1  UNL1        0.1195
     22 C          61.1812   86.7812    8.5216 C.ar    1  UNL1        0.0013
     23 C          62.3496   86.3460    9.3556 C.ar    1  UNL1       -0.0025
     24 C          63.1742   85.1661    8.9336 C.ar    1  UNL1        0.0006
     25 C          62.8303   84.4214    7.6778 C.ar    1  UNL1        0.0114
     26 C          61.6619   84.8566    6.8439 C.ar    1  UNL1        0.0574
     27 CL         61.3180   84.1119    5.5881 Cl      1  UNL1       -0.0823
     28 C          60.8374   86.0365    7.2659 C.ar    1  UNL1        0.0089
@<TRIPOS>BOND
     1    18    19    1
     2    19     1    1
     3     1     2    2
     4     1     3   am
     5     3     4    1
     6     4     5    1
     7     5     6    1
     8     6     9    1
     9     9    10    2
    10    10    11    1
    11    11    12    2
    12    12    13    1
    13    13    14    2
    14    14    15    1
    15    15    16    2
    16    16    17    1
    17     6     7    1
    18     7     8    1
    19    19    22    1
    20    22    23   ar
    21    23    24   ar
    22    24    25   ar
    23    25    26   ar
    24    26    27    1
    25    26    28   ar
    26     8     3    1
    27    28    22   ar
    28    17     9    1
    29    16    12    1
    30    18    20    1
    31    18    21    1
@<TRIPOS>MOLECULE
*****
 28 31 0 0 0
SMALL
GASTEIGER

@<TRIPOS>ATOM
      1 C          62.3773   86.1496   12.2588 C.2     1  UNL1        0.2440
      2 O          61.5600   86.3651   11.0196 O.2     1  UNL1       -0.2731
      3 N          63.1428   87.2907   12.8603 N.am    1  UNL1       -0.2747
      4 C          63.0910   88.6474   12.2226 C.3     1  UNL1        0.1149
      5 C          63.8566   89.7886   12.8241 C.3     1  UNL1        0.1121
      6 N          64.6738   89.5730   14.0632 N.pl3   1  UNL1       -0.3071
      7 C          64.7256   88.2163   14.7010 C.3     1  UNL1        0.1121
      8 C          63.9601   87.0752   14.0995 C.3     1  UNL1        0.1149
      9 C          65.4393   90.7142   14.6648 C.2     1  UNL1        0.0295
     10 C          64.7893   91.5962   15.6891 C.2     1  UNL1        0.0120
     11 C          65.5548   92.7374   16.2906 C.2     1  UNL1        0.0216
     12 C          66.9705   92.9964   15.8678 C.2     1  UNL1        0.1008
     13 N          67.9673   94.0377   16.2824 N.2     1  UNL1       -0.1482
     14 N          69.2334   93.7992   15.5143 N.2     1  UNL1       -0.1467
     15 C          69.0192   92.6105   14.6249 C.2     1  UNL1        0.1198
     16 C          67.6206   92.1142   14.8434 C.2     1  UNL1        0.0238
     17 C          66.8550   90.9732   14.2419 C.3     1  UNL1        0.0705
     18 N          62.0614   84.6288   14.3414 N.3     1  UNL1       -0.3116
     19 C          62.4291   84.7929   12.8966 C.3     1  UNL1        0.1514
     20 H          61.8035   85.5352   14.7317 H       1  UNL1        0.1195
     21 H          62.8584   84.2520   14.8544 H       1  UNL1        0.1195
     22 C          62.8487   83.6002   12.0892 C.ar    1  UNL1        0.0013
     23 C          63.6264   83.7894   10.8207 C.ar    1  UNL1       -0.0025
     24 C          64.0460   82.5968   10.0133 C.ar    1  UNL1        0.0006
     25 C          63.6878   81.2152   10.4746 C.ar    1  UNL1        0.0114
     26 C          62.9101   81.0261   11.7432 C.ar    1  UNL1        0.0574
     27 CL         62.5519   79.6445   12.2045 Cl      1  UNL1       -0.0823
     28 C          62.4905   82.2187   12.5505 C.ar    1  UNL1        0.0089
@<TRIPOS>BOND
     1    18    19    1
     2    19     1    1
     3     1     2    2
     4     1     3   am
     5     3     4    1
     6     4     5    1
     7     5     6    1
     8     6     9    1
     9     9    10    2
    10    10    11    1
    11    11    12    2
    12    12    13    1
    13    13    14    2
    14    14    15    1
    15    15    16    2
    16    16    17    1
    17     6     7    1
    18     7     8    1
    19    19    22    1
    20    22    23   ar
    21    23    24   ar
    22    24    25   ar
    23    25    26   ar
    24    26    27    1
    25    26    28   ar
    26     8     3    1
    27    28    22   ar
    28    17     9    1
    29    16    12    1
    30    18    20    1
    31    18    21    1
@<TRIPOS>MOLECULE
*****
 28 31 0 0 0
SMALL
GASTEIGER

@<TRIPOS>ATOM
      1 C          62.0551   85.9192   11.9564 C.2     1  UNL1        0.2440
      2 O          61.0761   85.7299   10.8357 O.2     1  UNL1       -0.2731
      3 N          62.7277   87.2461   12.1486 N.am    1  UNL1       -0.2747
      4 C          62.4213   88.3837   11.2202 C.3     1  UNL1        0.1149
      5 C          63.0939   89.7107   11.4124 C.3     1  UNL1        0.1121
      6 N          64.0729   89.8999   12.5330 N.pl3   1  UNL1       -0.3071
      7 C          64.3793   88.7623   13.4614 C.3     1  UNL1        0.1121
      8 C          63.7067   87.4354   13.2692 C.3     1  UNL1        0.1149
      9 C          64.7455   91.2269   12.7253 C.2     1  UNL1        0.0295
     10 C          65.3180   91.5907   14.0630 C.2     1  UNL1        0.0120
     11 C          65.9907   92.9176   14.2553 C.2     1  UNL1        0.0216
     12 C          66.0907   93.8807   13.1097 C.2     1  UNL1        0.1008
     13 N          66.6919   95.2505   12.9996 N.2     1  UNL1       -0.1482
     14 N          66.4909   95.7333   11.5937 N.2     1  UNL1       -0.1467
     15 C          65.7655   94.6618   10.8349 C.2     1  UNL1        0.1198
     16 C          65.5181   93.5168   11.7718 C.2     1  UNL1        0.0238
     17 C          64.8455   92.1899   11.5796 C.3     1  UNL1        0.0705
     18 N          62.3359   84.9970   14.3689 N.3     1  UNL1       -0.3116
     19 C          62.3616   84.7816   12.8848 C.3     1  UNL1        0.1514
     20 H          62.0937   85.9678   14.5674 H       1  UNL1        0.1195
     21 H          63.2554   84.7895   14.7585 H       1  UNL1        0.1195
     22 C          62.6937   83.4285   12.3288 C.ar    1  UNL1        0.0013
     23 C          63.4080   83.3123   11.0150 C.ar    1  UNL1       -0.0025
     24 C          63.7401   81.9593   10.4590 C.ar    1  UNL1        0.0006
     25 C          63.3579   80.7226   11.2169 C.ar    1  UNL1        0.0114
     26 C          62.6435   80.8388   12.5308 C.ar    1  UNL1        0.0574
     27 CL         62.2613   79.6022   13.2886 Cl      1  UNL1       -0.0823
     28 C          62.3114   82.1919   13.0867 C.ar    1  UNL1        0.0089
@<TRIPOS>BOND
     1    18    19    1
     2    19     1    1
     3     1     2    2
     4     1     3   am
     5     3     4    1
     6     4     5    1
     7     5     6    1
     8     6     9    1
     9     9    10    2
    10    10    11    1
    11    11    12    2
    12    12    13    1
    13    13    14    2
    14    14    15    1
    15    15    16    2
    16    16    17    1
    17     6     7    1
    18     7     8    1
    19    19    22    1
    20    22    23   ar
    21    23    24   ar
    22    24    25   ar
    23    25    26   ar
    24    26    27    1
    25    26    28   ar
    26     8     3    1
    27    28    22   ar
    28    17     9    1
    29    16    12    1
    30    18    20    1
    31    18    21    1
