@<TRIPOS>MOLECULE
*****
 24 25 0 0 0
SMALL
GASTEIGER

@<TRIPOS>ATOM
      1 C          61.6892   87.0771    9.7347 C.3     1  UNL1        0.1685
      2 C          62.3317   85.8197   10.2407 C.ar    1  UNL1        0.0065
      3 C          62.3113   85.5048   11.7072 C.ar    1  UNL1        0.0380
      4 C          62.9538   84.2474   12.2133 C.ar    1  UNL1        0.1762
      5 C          63.6166   83.3048   11.2529 C.ar    1  UNL1        0.1761
      6 C          63.6370   83.6197    9.7865 C.ar    1  UNL1        0.0357
      7 C          62.9945   84.8772    9.2805 C.ar    1  UNL1       -0.0206
      8 O          64.1631   82.1502   12.0392 O.3     1  UNL1       -0.4346
      9 C          63.8379   82.3792   13.4855 C.3     1  UNL1        0.4294
     10 O          63.0905   83.6753   13.5931 O.3     1  UNL1       -0.4346
     11 C          63.0149   85.1921    7.8139 C.3     1  UNL1        0.0262
     12 C          61.8494   84.8129    6.9491 C.3     1  UNL1        0.0047
     13 C          62.0843   84.2417    5.5822 C.3     1  UNL1        0.0004
     14 O          60.3658   87.5177   10.2864 O.3     1  UNL1       -0.3463
     15 C          60.0775   88.9786   10.4675 C.3     1  UNL1        0.1746
     16 C          60.1693   89.5978   11.8306 C.3     1  UNL1        0.1742
     17 O          61.4821   89.6235   12.5559 O.3     1  UNL1       -0.3484
     18 C          62.7394   89.9779   11.8187 C.3     1  UNL1        0.1742
     19 C          63.5557   91.1591   12.2529 C.3     1  UNL1        0.1741
     20 O          63.9039   91.3388   13.7007 O.3     1  UNL1       -0.3511
     21 C          64.7606   90.3236   14.3977 C.3     1  UNL1        0.1423
     22 C          64.1365   89.0944   14.9887 C.3     1  UNL1        0.0321
     23 C          64.4887   86.5208   15.0369 C.3     1  UNL1        0.0001
     24 C          64.2340   87.7828   14.2674 C.3     1  UNL1        0.0026
@<TRIPOS>BOND
     1    23    24    1
     2    24    22    1
     3    22    21    1
     4    21    20    1
     5    20    19    1
     6    19    18    1
     7    18    17    1
     8    17    16    1
     9    16    15    1
    10    15    14    1
    11    14     1    1
    12     1     2    1
    13     2     3   ar
    14     3     4   ar
    15     4     5   ar
    16     5     6   ar
    17     6     7   ar
    18     7    11    1
    19    11    12    1
    20    12    13    1
    21     5     8    1
    22     8     9    1
    23     9    10    1
    24     7     2   ar
    25    10     4    1
@<TRIPOS>MOLECULE
*****
 24 25 0 0 0
SMALL
GASTEIGER

@<TRIPOS>ATOM
      1 C          62.7086   89.3251   12.0734 C.3     1  UNL1        0.1685
      2 C          63.7187   90.4064   12.3198 C.ar    1  UNL1        0.0065
      3 C          63.9578   91.4603   11.2795 C.ar    1  UNL1        0.0380
      4 C          64.9678   92.5416   11.5258 C.ar    1  UNL1        0.1762
      5 C          65.7386   92.5691   12.8123 C.ar    1  UNL1        0.1761
      6 C          65.4995   91.5152   13.8525 C.ar    1  UNL1        0.0357
      7 C          64.4894   90.4339   13.6062 C.ar    1  UNL1       -0.0206
      8 O          66.6627   93.7500   12.7739 O.3     1  UNL1       -0.4346
      9 C          66.4630   94.4524   11.4637 C.3     1  UNL1        0.4294
     10 O          65.4155   93.7056   10.6923 O.3     1  UNL1       -0.4346
     11 C          64.2502   89.3799   14.6465 C.3     1  UNL1        0.0262
     12 C          63.3547   89.6687   15.8147 C.3     1  UNL1        0.0047
     13 C          63.1052   88.6105   16.8481 C.3     1  UNL1        0.0004
     14 O          61.3068   89.4776   12.5845 O.3     1  UNL1       -0.3463
     15 C          60.1646   89.5920   11.6188 C.3     1  UNL1        0.1746
     16 C          60.4224   89.9906   10.1961 C.3     1  UNL1        0.1742
     17 O          60.0026   89.0858    9.0757 O.3     1  UNL1       -0.3484
     18 C          59.9520   87.6020    9.2889 C.3     1  UNL1        0.1742
     19 C          61.1612   86.7616    9.0032 C.3     1  UNL1        0.1741
     20 O          62.1729   86.5117   10.0821 O.3     1  UNL1       -0.3511
     21 C          61.7940   85.7158   11.2958 C.3     1  UNL1        0.1423
     22 C          62.8247   84.8824   11.9979 C.3     1  UNL1        0.0321
     23 C          63.8769   83.4480   10.1044 C.3     1  UNL1        0.0001
     24 C          63.2097   83.5423   11.4444 C.3     1  UNL1        0.0026
@<TRIPOS>BOND
     1    23    24    1
     2    24    22    1
     3    22    21    1
     4    21    20    1
     5    20    19    1
     6    19    18    1
     7    18    17    1
     8    17    16    1
     9    16    15    1
    10    15    14    1
    11    14     1    1
    12     1     2    1
    13     2     3   ar
    14     3     4   ar
    15     4     5   ar
    16     5     6   ar
    17     6     7   ar
    18     7    11    1
    19    11    12    1
    20    12    13    1
    21     5     8    1
    22     8     9    1
    23     9    10    1
    24     7     2   ar
    25    10     4    1
@<TRIPOS>MOLECULE
*****
 24 25 0 0 0
SMALL
GASTEIGER

@<TRIPOS>ATOM
      1 C          63.0502   88.5389   12.0488 C.3     1  UNL1        0.1685
      2 C          62.1405   88.0444   10.9634 C.ar    1  UNL1        0.0065
      3 C          61.4388   89.0231   10.0691 C.ar    1  UNL1        0.0380
      4 C          60.5291   88.5286    8.9838 C.ar    1  UNL1        0.1762
      5 C          60.3210   87.0554    8.7928 C.ar    1  UNL1        0.1761
      6 C          61.0227   86.0767    9.6871 C.ar    1  UNL1        0.0357
      7 C          61.9324   86.5713   10.7725 C.ar    1  UNL1       -0.0206
      8 O          59.3720   86.8660    7.6468 O.3     1  UNL1       -0.4346
      9 C          58.9935   88.2222    7.1295 C.3     1  UNL1        0.4294
     10 O          59.7086   89.2497    7.9558 O.3     1  UNL1       -0.4346
     11 C          62.6341   85.5925   11.6668 C.3     1  UNL1        0.0262
     12 C          62.6702   84.1375   11.3041 C.3     1  UNL1        0.0047
     13 C          63.8139   83.5929   10.5007 C.3     1  UNL1        0.0004
     14 O          62.5686   89.5808   13.0143 O.3     1  UNL1       -0.3463
     15 C          63.5404   90.2545   13.9373 C.3     1  UNL1        0.1746
     16 C          64.3695   89.4353   14.8813 C.3     1  UNL1        0.1742
     17 O          63.8233   88.1558   15.4424 O.3     1  UNL1       -0.3484
     18 C          64.3456   86.8383   14.9513 C.3     1  UNL1        0.1742
     19 C          63.9910   85.5737   15.6761 C.3     1  UNL1        0.1741
     20 O          62.7916   84.7783   15.2537 O.3     1  UNL1       -0.3511
     21 C          62.8570   83.2799   15.2261 C.3     1  UNL1        0.1423
     22 C          61.9963   82.5090   14.2698 C.3     1  UNL1        0.0321
     23 C          62.6749   80.5724   12.6764 C.3     1  UNL1        0.0001
     24 C          62.2562   81.0504   14.0351 C.3     1  UNL1        0.0026
@<TRIPOS>BOND
     1    23    24    1
     2    24    22    1
     3    22    21    1
     4    21    20    1
     5    20    19    1
     6    19    18    1
     7    18    17    1
     8    17    16    1
     9    16    15    1
    10    15    14    1
    11    14     1    1
    12     1     2    1
    13     2     3   ar
    14     3     4   ar
    15     4     5   ar
    16     5     6   ar
    17     6     7   ar
    18     7    11    1
    19    11    12    1
    20    12    13    1
    21     5     8    1
    22     8     9    1
    23     9    10    1
    24     7     2   ar
    25    10     4    1
@<TRIPOS>MOLECULE
*****
 24 25 0 0 0
SMALL
GASTEIGER

@<TRIPOS>ATOM
      1 C          61.5613   86.9762    9.7227 C.3     1  UNL1        0.1685
      2 C          62.2752   85.7578   10.2285 C.ar    1  UNL1        0.0065
      3 C          62.2581   85.4323   11.6927 C.ar    1  UNL1        0.0380
      4 C          62.9719   84.2139   12.1986 C.ar    1  UNL1        0.1762
      5 C          63.7029   83.3210   11.2403 C.ar    1  UNL1        0.1761
      6 C          63.7200   83.6464    9.7761 C.ar    1  UNL1        0.0357
      7 C          63.0061   84.8649    9.2703 C.ar    1  UNL1       -0.0206
      8 O          64.3114   82.1973   12.0259 O.3     1  UNL1       -0.4346
      9 C          63.9565   82.3958   13.4697 C.3     1  UNL1        0.4294
     10 O          63.1287   83.6422   13.5764 O.3     1  UNL1       -0.4346
     11 C          63.0232   85.1903    7.8060 C.3     1  UNL1        0.0262
     12 C          61.8140   84.9148    6.9623 C.3     1  UNL1        0.0047
     13 C          61.9681   84.2586    5.6223 C.3     1  UNL1        0.0004
     14 O          60.4737   87.6031   10.5436 O.3     1  UNL1       -0.3463
     15 C          60.1451   89.0563   10.3691 C.3     1  UNL1        0.1746
     16 C          60.4612   90.0332   11.4624 C.3     1  UNL1        0.1742
     17 O          61.4796   89.6857   12.5075 O.3     1  UNL1       -0.3484
     18 C          62.9389   89.6821   12.1607 C.3     1  UNL1        0.1742
     19 C          63.7885   90.8766   12.4796 C.3     1  UNL1        0.1741
     20 O          63.8410   91.4068   13.8817 O.3     1  UNL1       -0.3511
     21 C          64.9298   90.9606   14.8121 C.3     1  UNL1        0.1423
     22 C          66.2609   91.6516   14.7949 C.3     1  UNL1        0.0321
     23 C          67.9345   93.3377   15.8467 C.3     1  UNL1        0.0001
     24 C          66.6068   92.6401   15.8689 C.3     1  UNL1        0.0026
@<TRIPOS>BOND
     1    23    24    1
     2    24    22    1
     3    22    21    1
     4    21    20    1
     5    20    19    1
     6    19    18    1
     7    18    17    1
     8    17    16    1
     9    16    15    1
    10    15    14    1
    11    14     1    1
    12     1     2    1
    13     2     3   ar
    14     3     4   ar
    15     4     5   ar
    16     5     6   ar
    17     6     7   ar
    18     7    11    1
    19    11    12    1
    20    12    13    1
    21     5     8    1
    22     8     9    1
    23     9    10    1
    24     7     2   ar
    25    10     4    1
@<TRIPOS>MOLECULE
*****
 24 25 0 0 0
SMALL
GASTEIGER

@<TRIPOS>ATOM
      1 C          63.9382   89.3492   14.3845 C.3     1  UNL1        0.1685
      2 C          64.2650   90.4071   13.3724 C.ar    1  UNL1        0.0065
      3 C          65.2990   91.4483   13.6832 C.ar    1  UNL1        0.0380
      4 C          65.6258   92.5062   12.6712 C.ar    1  UNL1        0.1762
      5 C          64.9186   92.5228   11.3485 C.ar    1  UNL1        0.1761
      6 C          63.8845   91.4816   11.0378 C.ar    1  UNL1        0.0357
      7 C          63.5578   90.4237   12.0498 C.ar    1  UNL1       -0.0206
      8 O          65.4472   93.6806   10.5547 O.3     1  UNL1       -0.4346
      9 C          66.4812   94.3795   11.3868 C.3     1  UNL1        0.4294
     10 O          66.5916   93.6537   12.6949 O.3     1  UNL1       -0.4346
     11 C          62.5237   89.3824   11.7390 C.3     1  UNL1        0.0262
     12 C          62.1376   89.1102   10.3154 C.3     1  UNL1        0.0047
     13 C          62.1571   87.7060    9.7883 C.3     1  UNL1        0.0004
     14 O          62.8729   89.5967   15.4110 O.3     1  UNL1       -0.3463
     15 C          63.1198   89.2447   16.8481 C.3     1  UNL1        0.1746
     16 C          62.9570   87.8276   17.3118 C.3     1  UNL1        0.1742
     17 O          62.8393   86.7188   16.3082 O.3     1  UNL1       -0.3484
     18 C          64.0746   86.0585   15.7719 C.3     1  UNL1        0.1742
     19 C          63.9991   85.2244   14.5274 C.3     1  UNL1        0.1741
     20 O          63.3315   85.7683   13.2993 O.3     1  UNL1       -0.3511
     21 C          62.5430   84.8555   12.4075 C.3     1  UNL1        0.1423
     22 C          63.2098   84.1839   11.2439 C.3     1  UNL1        0.0321
     23 C          62.6286   81.8605   12.2510 C.3     1  UNL1        0.0001
     24 C          63.2699   82.6866   11.1757 C.3     1  UNL1        0.0026
@<TRIPOS>BOND
     1    23    24    1
     2    24    22    1
     3    22    21    1
     4    21    20    1
     5    20    19    1
     6    19    18    1
     7    18    17    1
     8    17    16    1
     9    16    15    1
    10    15    14    1
    11    14     1    1
    12     1     2    1
    13     2     3   ar
    14     3     4   ar
    15     4     5   ar
    16     5     6   ar
    17     6     7   ar
    18     7    11    1
    19    11    12    1
    20    12    13    1
    21     5     8    1
    22     8     9    1
    23     9    10    1
    24     7     2   ar
    25    10     4    1
@<TRIPOS>MOLECULE
*****
 24 25 0 0 0
SMALL
GASTEIGER

@<TRIPOS>ATOM
      1 C          62.4765   89.3417   12.1712 C.3     1  UNL1        0.1685
      2 C          63.5673   90.3564   12.3465 C.ar    1  UNL1        0.0065
      3 C          63.8191   91.3789   11.2783 C.ar    1  UNL1        0.0380
      4 C          64.9098   92.3936   11.4535 C.ar    1  UNL1        0.1762
      5 C          65.7488   92.3858   12.6969 C.ar    1  UNL1        0.1761
      6 C          65.4970   91.3633   13.7651 C.ar    1  UNL1        0.0357
      7 C          64.4062   90.3486   13.5899 C.ar    1  UNL1       -0.0206
      8 O          66.7452   93.5019   12.5909 O.3     1  UNL1       -0.4346
      9 C          66.5221   94.1996   11.2819 C.3     1  UNL1        0.4294
     10 O          65.3878   93.5146   10.5789 O.3     1  UNL1       -0.4346
     11 C          64.1544   89.3260   14.6581 C.3     1  UNL1        0.0262
     12 C          63.4360   89.7165   15.9157 C.3     1  UNL1        0.0047
     13 C          63.0706   88.6702   16.9265 C.3     1  UNL1        0.0004
     14 O          62.6270   88.2462   11.1579 O.3     1  UNL1       -0.3463
     15 C          61.4177   87.5055   10.6688 C.3     1  UNL1        0.1746
     16 C          61.4644   86.0146   10.5111 C.3     1  UNL1        0.1742
     17 O          62.6008   85.2331   11.1010 O.3     1  UNL1       -0.3484
     18 C          62.6237   84.9368   12.5712 C.3     1  UNL1        0.1742
     19 C          63.9132   84.5647   13.2413 C.3     1  UNL1        0.1741
     20 O          64.1794   83.1367   13.6150 O.3     1  UNL1       -0.3511
     21 C          64.1529   82.0684   12.5623 C.3     1  UNL1        0.1423
     22 C          62.8720   81.3520   12.2528 C.3     1  UNL1        0.0321
     23 C          61.0934   80.8910   14.0897 C.3     1  UNL1        0.0001
     24 C          62.2624   80.4325   13.2693 C.3     1  UNL1        0.0026
@<TRIPOS>BOND
     1    23    24    1
     2    24    22    1
     3    22    21    1
     4    21    20    1
     5    20    19    1
     6    19    18    1
     7    18    17    1
     8    17    16    1
     9    16    15    1
    10    15    14    1
    11    14     1    1
    12     1     2    1
    13     2     3   ar
    14     3     4   ar
    15     4     5   ar
    16     5     6   ar
    17     6     7   ar
    18     7    11    1
    19    11    12    1
    20    12    13    1
    21     5     8    1
    22     8     9    1
    23     9    10    1
    24     7     2   ar
    25    10     4    1
@<TRIPOS>MOLECULE
*****
 24 25 0 0 0
SMALL
GASTEIGER

@<TRIPOS>ATOM
      1 C          61.9829   87.2306   10.6132 C.3     1  UNL1        0.1685
      2 C          62.4630   85.8331   10.8711 C.ar    1  UNL1        0.0065
      3 C          62.3949   85.2603   12.2558 C.ar    1  UNL1        0.0380
      4 C          62.8749   83.8628   12.5138 C.ar    1  UNL1        0.1762
      5 C          63.4230   83.0381   11.3871 C.ar    1  UNL1        0.1761
      6 C          63.4911   83.6108   10.0024 C.ar    1  UNL1        0.0357
      7 C          63.0111   85.0084    9.7445 C.ar    1  UNL1       -0.0206
      8 O          63.8186   81.7014   11.9409 O.3     1  UNL1       -0.4346
      9 C          63.5150   81.7000   13.4098 C.3     1  UNL1        0.4294
     10 O          62.9317   83.0358   13.7639 O.3     1  UNL1       -0.4346
     11 C          63.0791   85.5812    8.3597 C.3     1  UNL1        0.0262
     12 C          62.7004   84.7367    7.1793 C.3     1  UNL1        0.0047
     13 C          61.3094   84.8068    6.6224 C.3     1  UNL1        0.0004
     14 O          61.3763   88.0327   11.7260 O.3     1  UNL1       -0.3463
     15 C          61.6312   89.5084   11.8124 C.3     1  UNL1        0.1746
     16 C          62.9766   90.0132   12.2422 C.3     1  UNL1        0.1742
     17 O          63.2031   90.4257   13.6665 O.3     1  UNL1       -0.3484
     18 C          64.5850   90.3850   14.2484 C.3     1  UNL1        0.1742
     19 C          65.5626   91.4792   13.9365 C.3     1  UNL1        0.1741
     20 O          65.1331   92.6560   13.1116 O.3     1  UNL1       -0.3511
     21 C          66.0887   93.2772   12.1364 C.3     1  UNL1        0.1423
     22 C          66.1821   92.7468   10.7365 C.3     1  UNL1        0.0321
     23 C          68.3878   92.2643    9.4511 C.3     1  UNL1        0.0001
     24 C          67.2860   93.2083    9.8317 C.3     1  UNL1        0.0026
@<TRIPOS>BOND
     1    23    24    1
     2    24    22    1
     3    22    21    1
     4    21    20    1
     5    20    19    1
     6    19    18    1
     7    18    17    1
     8    17    16    1
     9    16    15    1
    10    15    14    1
    11    14     1    1
    12     1     2    1
    13     2     3   ar
    14     3     4   ar
    15     4     5   ar
    16     5     6   ar
    17     6     7   ar
    18     7    11    1
    19    11    12    1
    20    12    13    1
    21     5     8    1
    22     8     9    1
    23     9    10    1
    24     7     2   ar
    25    10     4    1
@<TRIPOS>MOLECULE
*****
 24 25 0 0 0
SMALL
GASTEIGER

@<TRIPOS>ATOM
      1 C          63.8866   86.9413   13.6868 C.3     1  UNL1        0.1685
      2 C          63.6319   85.4741   13.8680 C.ar    1  UNL1        0.0065
      3 C          63.3264   84.6135   12.6781 C.ar    1  UNL1        0.0380
      4 C          63.0718   83.1464   12.8592 C.ar    1  UNL1        0.1762
      5 C          63.1227   82.5400   14.2302 C.ar    1  UNL1        0.1761
      6 C          63.4283   83.4006   15.4201 C.ar    1  UNL1        0.0357
      7 C          63.6829   84.8678   15.2389 C.ar    1  UNL1       -0.0206
      8 O          62.8309   81.0744   14.1000 O.3     1  UNL1       -0.4346
      9 C          62.5996   80.7751   12.6485 C.3     1  UNL1        0.4294
     10 O          62.7484   82.0556   11.8816 O.3     1  UNL1       -0.4346
     11 C          63.9885   85.7285   16.4289 C.3     1  UNL1        0.0262
     12 C          62.8754   86.4154   17.1633 C.3     1  UNL1        0.0047
     13 C          62.8832   87.9081   17.3106 C.3     1  UNL1        0.0004
     14 O          63.2652   87.6737   12.5347 O.3     1  UNL1       -0.3463
     15 C          63.4138   89.1623   12.4244 C.3     1  UNL1        0.1746
     16 C          62.2093   90.0475   12.5487 C.3     1  UNL1        0.1742
     17 O          61.4472   90.4536   11.3222 O.3     1  UNL1       -0.3484
     18 C          60.3017   89.6145   10.8390 C.3     1  UNL1        0.1742
     19 C          60.1604   89.3085    9.3773 C.3     1  UNL1        0.1741
     20 O          60.6603   88.0034    8.8326 O.3     1  UNL1       -0.3511
     21 C          61.8784   87.3601    9.4263 C.3     1  UNL1        0.1423
     22 C          62.0537   85.8724    9.3495 C.3     1  UNL1        0.0321
     23 C          62.5047   84.8515    7.0033 C.3     1  UNL1        0.0001
     24 C          63.0039   85.2797    8.3514 C.3     1  UNL1        0.0026
@<TRIPOS>BOND
     1    23    24    1
     2    24    22    1
     3    22    21    1
     4    21    20    1
     5    20    19    1
     6    19    18    1
     7    18    17    1
     8    17    16    1
     9    16    15    1
    10    15    14    1
    11    14     1    1
    12     1     2    1
    13     2     3   ar
    14     3     4   ar
    15     4     5   ar
    16     5     6   ar
    17     6     7   ar
    18     7    11    1
    19    11    12    1
    20    12    13    1
    21     5     8    1
    22     8     9    1
    23     9    10    1
    24     7     2   ar
    25    10     4    1
@<TRIPOS>MOLECULE
*****
 24 25 0 0 0
SMALL
GASTEIGER

@<TRIPOS>ATOM
      1 C          64.3947   86.3019   14.5464 C.3     1  UNL1        0.1685
      2 C          63.8346   85.0509   13.9369 C.ar    1  UNL1        0.0065
      3 C          64.0197   83.7324   14.6277 C.ar    1  UNL1        0.0380
      4 C          63.4596   82.4814   14.0183 C.ar    1  UNL1        0.1762
      5 C          62.7145   82.5489   12.7182 C.ar    1  UNL1        0.1761
      6 C          62.5294   83.8675   12.0275 C.ar    1  UNL1        0.0357
      7 C          63.0895   85.1185   12.6369 C.ar    1  UNL1       -0.0206
      8 O          62.2783   81.1589   12.3611 O.3     1  UNL1       -0.4346
      9 C          62.7539   80.2322   13.4405 C.3     1  UNL1        0.4294
     10 O          63.4840   81.0495   14.4647 O.3     1  UNL1       -0.4346
     11 C          62.9044   86.4371   11.9462 C.3     1  UNL1        0.0262
     12 C          61.7774   86.6228   10.9738 C.3     1  UNL1        0.0047
     13 C          62.0579   86.6716    9.5011 C.3     1  UNL1        0.0004
     14 O          63.6601   86.9877   15.6599 O.3     1  UNL1       -0.3463
     15 C          63.6201   88.4859   15.7212 C.3     1  UNL1        0.1746
     16 C          64.1990   89.2981   14.6009 C.3     1  UNL1        0.1742
     17 O          63.5560   90.5940   14.2039 O.3     1  UNL1       -0.3484
     18 C          63.5538   91.0204   12.7659 C.3     1  UNL1        0.1742
     19 C          64.7625   91.6877   12.1796 C.3     1  UNL1        0.1741
     20 O          65.2925   92.9507   12.7909 O.3     1  UNL1       -0.3511
     21 C          66.5427   92.9160   13.6192 C.3     1  UNL1        0.1423
     22 C          66.4506   92.9132   15.1162 C.3     1  UNL1        0.0321
     23 C          68.7473   93.7336   16.0119 C.3     1  UNL1        0.0001
     24 C          67.6807   92.6813   15.9429 C.3     1  UNL1        0.0026
@<TRIPOS>BOND
     1    23    24    1
     2    24    22    1
     3    22    21    1
     4    21    20    1
     5    20    19    1
     6    19    18    1
     7    18    17    1
     8    17    16    1
     9    16    15    1
    10    15    14    1
    11    14     1    1
    12     1     2    1
    13     2     3   ar
    14     3     4   ar
    15     4     5   ar
    16     5     6   ar
    17     6     7   ar
    18     7    11    1
    19    11    12    1
    20    12    13    1
    21     5     8    1
    22     8     9    1
    23     9    10    1
    24     7     2   ar
    25    10     4    1
