@<TRIPOS>MOLECULE
*****
 30 33 0 0 0
SMALL
GASTEIGER

@<TRIPOS>ATOM
      1 N          63.3498   90.4452   11.7062 N.ar    1  UNL1       -0.3028
      2 C          64.2438   91.5176   11.1578 C.ar    1  UNL1        0.0834
      3 C          64.9378   92.1777   12.3123 C.ar    1  UNL1        0.0601
      4 C          64.4727   91.5132   13.5741 C.ar    1  UNL1        0.0481
      5 C          64.8160   91.7448   15.0158 C.ar    1  UNL1        0.1416
      6 F          65.7974   92.8156   15.3904 F       1  UNL1       -0.2041
      7 C          64.1779   90.9057   16.0828 C.ar    1  UNL1        0.0297
      8 C          63.1965   89.8350   15.7083 C.ar    1  UNL1        0.0038
      9 C          62.8531   89.6034   14.2666 C.ar    1  UNL1        0.0177
     10 C          63.4912   90.4425   13.1995 C.ar    1  UNL1        0.0664
     11 C          60.7073   87.7152    9.2948 C.ar    1  UNL1        0.0163
     12 C          60.6634   89.1969    9.0652 C.ar    1  UNL1        0.0028
     13 C          61.5442   90.1069    9.8690 C.ar    1  UNL1        0.0198
     14 C          62.4690   89.5352   10.9024 C.ar    1  UNL1        0.0916
     15 C          62.5129   88.0535   11.1320 C.ar    1  UNL1        0.1561
     16 F          63.4377   87.4818   12.1654 F       1  UNL1       -0.2026
     17 C          61.6321   87.1435   10.3282 C.ar    1  UNL1        0.0323
     18 O          60.4119   85.6035    7.8106 O.co2   1  UNL1       -0.5446
     19 C          59.8265   86.8053    8.4909 C.2     1  UNL1        0.0729
     20 O          58.3604   87.0972    8.3675 O.co2   1  UNL1       -0.5446
     21 C          65.9238   93.3044   12.2210 C.2     1  UNL1        0.1987
     22 O          66.1285   94.2187   13.3922 O.2     1  UNL1       -0.2865
     23 C          66.7052   93.5167   10.9582 C.ar    1  UNL1        0.0601
     24 C          66.3565   94.6525   10.0425 C.ar    1  UNL1        0.0615
     25 CL         65.2264   95.5758   10.3896 Cl      1  UNL1       -0.0821
     26 C          67.1378   94.8649    8.7798 C.ar    1  UNL1        0.0115
     27 C          68.2678   93.9415    8.4328 C.ar    1  UNL1        0.0017
     28 C          68.6165   92.8058    9.3486 C.ar    1  UNL1        0.0115
     29 C          67.8352   92.5934   10.6112 C.ar    1  UNL1        0.0615
     30 CL         68.1839   91.4576   11.5269 Cl      1  UNL1       -0.0821
@<TRIPOS>UNITY_ATOM_ATTR
18 1
charge -1
@<TRIPOS>BOND
     1    18    19   ar
     2    19    20   ar
     3    19    11    1
     4    11    12   ar
     5    12    13   ar
     6    13    14   ar
     7    14     1    1
     8     1     2   ar
     9     2     3   ar
    10     3    21    1
    11    21    22    2
    12    21    23    1
    13    23    24   ar
    14    24    25    1
    15    24    26   ar
    16    26    27   ar
    17    27    28   ar
    18    28    29   ar
    19    29    30    1
    20     3     4   ar
    21     4     5   ar
    22     5     6    1
    23     5     7   ar
    24     7     8   ar
    25     8     9   ar
    26     9    10   ar
    27    14    15   ar
    28    15    16    1
    29    15    17   ar
    30    17    11   ar
    31    10     1   ar
    32    29    23   ar
    33    10     4   ar
@<TRIPOS>MOLECULE
*****
 30 33 0 0 0
SMALL
GASTEIGER

@<TRIPOS>ATOM
      1 N          63.3375   90.4719   11.6592 N.ar    1  UNL1       -0.3028
      2 C          64.2147   91.5558   11.1065 C.ar    1  UNL1        0.0834
      3 C          64.9208   92.2119   12.2558 C.ar    1  UNL1        0.0601
      4 C          64.4800   91.5335   13.5189 C.ar    1  UNL1        0.0481
      5 C          64.8432   91.7560   14.9571 C.ar    1  UNL1        0.1416
      6 F          65.8217   92.8314   15.3258 F       1  UNL1       -0.2041
      7 C          64.2278   90.9031   16.0266 C.ar    1  UNL1        0.0297
      8 C          63.2492   89.8277   15.6579 C.ar    1  UNL1        0.0038
      9 C          62.8861   89.6052   14.2197 C.ar    1  UNL1        0.0177
     10 C          63.5014   90.4581   13.1502 C.ar    1  UNL1        0.0664
     11 C          60.6805   87.7408    9.2651 C.ar    1  UNL1        0.0163
     12 C          60.6310   89.2229    9.0391 C.ar    1  UNL1        0.0028
     13 C          61.5167   90.1332    9.8372 C.ar    1  UNL1        0.0198
     14 C          62.4518   89.5616   10.8612 C.ar    1  UNL1        0.0916
     15 C          62.5013   88.0794   11.0872 C.ar    1  UNL1        0.1561
     16 F          63.4364   87.5077   12.1112 F       1  UNL1       -0.2026
     17 C          61.6156   87.1691   10.2891 C.ar    1  UNL1        0.0323
     18 O          60.3518   85.5677    7.8798 O.co2   1  UNL1       -0.5446
     19 C          59.7948   86.8305    8.4670 C.2     1  UNL1        0.0729
     20 O          58.3521   87.1831    8.2562 O.co2   1  UNL1       -0.5446
     21 C          65.8965   93.3471   12.1591 C.2     1  UNL1        0.1987
     22 O          66.1039   94.2598   13.3312 O.2     1  UNL1       -0.2865
     23 C          66.6648   93.5697   10.8901 C.ar    1  UNL1        0.0601
     24 C          67.7789   92.6382   10.5147 C.ar    1  UNL1        0.0615
     25 CL         68.1248   91.4841   11.4083 Cl      1  UNL1       -0.0821
     26 C          68.5472   92.8607    9.2458 C.ar    1  UNL1        0.0115
     27 C          68.2013   94.0148    8.3522 C.ar    1  UNL1        0.0017
     28 C          67.0871   94.9463    8.7276 C.ar    1  UNL1        0.0115
     29 C          66.3189   94.7238    9.9965 C.ar    1  UNL1        0.0615
     30 CL         65.2047   95.6553   10.3719 Cl      1  UNL1       -0.0821
@<TRIPOS>UNITY_ATOM_ATTR
18 1
charge -1
@<TRIPOS>BOND
     1    18    19   ar
     2    19    20   ar
     3    19    11    1
     4    11    12   ar
     5    12    13   ar
     6    13    14   ar
     7    14     1    1
     8     1     2   ar
     9     2     3   ar
    10     3    21    1
    11    21    22    2
    12    21    23    1
    13    23    24   ar
    14    24    25    1
    15    24    26   ar
    16    26    27   ar
    17    27    28   ar
    18    28    29   ar
    19    29    30    1
    20     3     4   ar
    21     4     5   ar
    22     5     6    1
    23     5     7   ar
    24     7     8   ar
    25     8     9   ar
    26     9    10   ar
    27    14    15   ar
    28    15    16    1
    29    15    17   ar
    30    17    11   ar
    31    10     1   ar
    32    29    23   ar
    33    10     4   ar
@<TRIPOS>MOLECULE
*****
 30 33 0 0 0
SMALL
GASTEIGER

@<TRIPOS>ATOM
      1 N          62.4125   87.2112   11.3610 N.ar    1  UNL1       -0.3028
      2 C          62.7500   85.7702   11.6056 C.ar    1  UNL1        0.0834
      3 C          63.5725   85.6929   12.8576 C.ar    1  UNL1        0.0601
      4 C          63.7433   87.0861   13.3868 C.ar    1  UNL1        0.0481
      5 C          64.4590   87.6214   14.5914 C.ar    1  UNL1        0.1416
      6 F          65.1759   86.6831   15.5164 F       1  UNL1       -0.2041
      7 C          64.4578   89.0951   14.8710 C.ar    1  UNL1        0.0297
      8 C          63.7409   90.0334   13.9461 C.ar    1  UNL1        0.0038
      9 C          63.0252   89.4981   12.7415 C.ar    1  UNL1        0.0177
     10 C          63.0264   88.0244   12.4618 C.ar    1  UNL1        0.0664
     11 C          59.9846   88.8130    7.9274 C.ar    1  UNL1        0.0163
     12 C          60.6117   89.7589    8.9082 C.ar    1  UNL1        0.0028
     13 C          61.4210   89.2249   10.0528 C.ar    1  UNL1        0.0198
     14 C          61.6032   87.7451   10.2165 C.ar    1  UNL1        0.0916
     15 C          60.9761   86.7992    9.2356 C.ar    1  UNL1        0.1561
     16 F          61.1583   85.3193    9.3992 F       1  UNL1       -0.2026
     17 C          60.1668   87.3332    8.0911 C.ar    1  UNL1        0.0323
     18 O          59.8444   90.1292    5.6918 O.co2   1  UNL1       -0.5446
     19 C          59.1753   89.3470    6.7829 C.2     1  UNL1        0.0729
     20 O          57.6970   89.0988    6.7295 O.co2   1  UNL1       -0.5446
     21 C          64.1268   84.4421   13.4725 C.2     1  UNL1        0.1987
     22 O          65.4578   84.4722   14.1635 O.2     1  UNL1       -0.2865
     23 C          63.3501   83.1610   13.3964 C.ar    1  UNL1        0.0601
     24 C          63.5445   82.2341   12.2333 C.ar    1  UNL1        0.0615
     25 CL         64.5156   82.5882   11.1462 Cl      1  UNL1       -0.0821
     26 C          62.7679   80.9531   12.1571 C.ar    1  UNL1        0.0115
     27 C          61.7969   80.5990   13.2442 C.ar    1  UNL1        0.0017
     28 C          61.6025   81.5260   14.4073 C.ar    1  UNL1        0.0115
     29 C          62.3791   82.8070   14.4835 C.ar    1  UNL1        0.0615
     30 CL         62.1847   83.7339   15.6467 Cl      1  UNL1       -0.0821
@<TRIPOS>UNITY_ATOM_ATTR
18 1
charge -1
@<TRIPOS>BOND
     1    18    19   ar
     2    19    20   ar
     3    19    11    1
     4    11    12   ar
     5    12    13   ar
     6    13    14   ar
     7    14     1    1
     8     1     2   ar
     9     2     3   ar
    10     3    21    1
    11    21    22    2
    12    21    23    1
    13    23    24   ar
    14    24    25    1
    15    24    26   ar
    16    26    27   ar
    17    27    28   ar
    18    28    29   ar
    19    29    30    1
    20     3     4   ar
    21     4     5   ar
    22     5     6    1
    23     5     7   ar
    24     7     8   ar
    25     8     9   ar
    26     9    10   ar
    27    14    15   ar
    28    15    16    1
    29    15    17   ar
    30    17    11   ar
    31    10     1   ar
    32    29    23   ar
    33    10     4   ar
@<TRIPOS>MOLECULE
*****
 30 33 0 0 0
SMALL
GASTEIGER

@<TRIPOS>ATOM
      1 N          62.4035   87.2358   11.3530 N.ar    1  UNL1       -0.3028
      2 C          62.7456   85.7958   11.5969 C.ar    1  UNL1        0.0834
      3 C          63.5659   85.7202   12.8504 C.ar    1  UNL1        0.0601
      4 C          63.7308   87.1134   13.3812 C.ar    1  UNL1        0.0481
      5 C          64.4423   87.6502   14.5877 C.ar    1  UNL1        0.1416
      6 F          65.1607   86.7135   15.5132 F       1  UNL1       -0.2041
      7 C          64.4354   89.1236   14.8687 C.ar    1  UNL1        0.0297
      8 C          63.7171   90.0602   13.9432 C.ar    1  UNL1        0.0038
      9 C          63.0056   89.5235   12.7367 C.ar    1  UNL1        0.0177
     10 C          63.0124   88.0501   12.4557 C.ar    1  UNL1        0.0664
     11 C          59.9767   88.8323    7.9161 C.ar    1  UNL1        0.0163
     12 C          60.5889   89.7789    8.9056 C.ar    1  UNL1        0.0028
     13 C          61.3978   89.2467   10.0512 C.ar    1  UNL1        0.0198
     14 C          61.5946   87.7680   10.2074 C.ar    1  UNL1        0.0916
     15 C          60.9824   86.8213    9.2178 C.ar    1  UNL1        0.1561
     16 F          61.1791   85.3425    9.3739 F       1  UNL1       -0.2026
     17 C          60.1734   87.3535    8.0722 C.ar    1  UNL1        0.0323
     18 O          57.6887   89.1203    6.7196 O.co2   1  UNL1       -0.5446
     19 C          59.1677   89.3646    6.7706 C.2     1  UNL1        0.0729
     20 O          59.8379   90.1409    5.6760 O.co2   1  UNL1       -0.5446
     21 C          64.1234   84.4707   13.4653 C.2     1  UNL1        0.1987
     22 O          65.4561   84.5033   14.1528 O.2     1  UNL1       -0.2865
     23 C          63.3481   83.1886   13.3926 C.ar    1  UNL1        0.0601
     24 C          62.3794   82.8352   14.4819 C.ar    1  UNL1        0.0615
     25 CL         62.1859   83.7639   15.6439 Cl      1  UNL1       -0.0821
     26 C          61.6041   81.5532   14.4093 C.ar    1  UNL1        0.0115
     27 C          61.7976   80.6245   13.2473 C.ar    1  UNL1        0.0017
     28 C          62.7664   80.9780   12.1580 C.ar    1  UNL1        0.0115
     29 C          63.5416   82.2600   12.2306 C.ar    1  UNL1        0.0615
     30 CL         64.5104   82.6134   11.1413 Cl      1  UNL1       -0.0821
@<TRIPOS>UNITY_ATOM_ATTR
18 1
charge -1
@<TRIPOS>BOND
     1    18    19   ar
     2    19    20   ar
     3    19    11    1
     4    11    12   ar
     5    12    13   ar
     6    13    14   ar
     7    14     1    1
     8     1     2   ar
     9     2     3   ar
    10     3    21    1
    11    21    22    2
    12    21    23    1
    13    23    24   ar
    14    24    25    1
    15    24    26   ar
    16    26    27   ar
    17    27    28   ar
    18    28    29   ar
    19    29    30    1
    20     3     4   ar
    21     4     5   ar
    22     5     6    1
    23     5     7   ar
    24     7     8   ar
    25     8     9   ar
    26     9    10   ar
    27    14    15   ar
    28    15    16    1
    29    15    17   ar
    30    17    11   ar
    31    10     1   ar
    32    29    23   ar
    33    10     4   ar
@<TRIPOS>MOLECULE
*****
 30 33 0 0 0
SMALL
GASTEIGER

@<TRIPOS>ATOM
      1 N          62.0648   86.3469   11.4411 N.ar    1  UNL1       -0.3028
      2 C          62.3843   87.6064   12.1905 C.ar    1  UNL1        0.0834
      3 C          61.8563   88.7645   11.3967 C.ar    1  UNL1        0.0601
      4 C          61.2105   88.2208   10.1569 C.ar    1  UNL1        0.0481
      5 C          60.5218   88.8932    9.0065 C.ar    1  UNL1        0.1416
      6 F          60.3929   90.3874    8.9790 F       1  UNL1       -0.2041
      7 C          59.9619   88.0714    7.8835 C.ar    1  UNL1        0.0297
      8 C          60.0908   86.5772    7.9109 C.ar    1  UNL1        0.0038
      9 C          60.7795   85.9048    9.0613 C.ar    1  UNL1        0.0177
     10 C          61.3393   86.7266   10.1843 C.ar    1  UNL1        0.0664
     11 C          63.1007   82.1636   12.7360 C.ar    1  UNL1        0.0163
     12 C          62.4318   83.1019   13.6962 C.ar    1  UNL1        0.0028
     13 C          62.0865   84.4964   13.2645 C.ar    1  UNL1        0.0198
     14 C          62.4101   84.9525   11.8728 C.ar    1  UNL1        0.0916
     15 C          63.0790   84.0141   10.9125 C.ar    1  UNL1        0.1561
     16 F          63.4026   84.4701    9.5206 F       1  UNL1       -0.2026
     17 C          63.4243   82.6196   11.3441 C.ar    1  UNL1        0.0323
     18 O          62.8440   79.5934   12.4569 O.co2   1  UNL1       -0.5446
     19 C          63.4460   80.7691   13.1677 C.2     1  UNL1        0.0729
     20 O          64.3932   80.5505   14.3100 O.co2   1  UNL1       -0.5446
     21 C          61.9565   90.2123   11.7763 C.2     1  UNL1        0.1987
     22 O          60.7202   91.0594   11.8356 O.2     1  UNL1       -0.2865
     23 C          63.2933   90.8129   12.0965 C.ar    1  UNL1        0.0601
     24 C          64.0561   91.5526   11.0378 C.ar    1  UNL1        0.0615
     25 CL         63.4822   91.6917    9.6589 Cl      1  UNL1       -0.0821
     26 C          65.3928   92.1532   11.3579 C.ar    1  UNL1        0.0115
     27 C          65.9666   92.0141   12.7368 C.ar    1  UNL1        0.0017
     28 C          65.2038   91.2744   13.7955 C.ar    1  UNL1        0.0115
     29 C          63.8671   90.6738   13.4754 C.ar    1  UNL1        0.0615
     30 CL         63.1043   89.9341   14.5341 Cl      1  UNL1       -0.0821
@<TRIPOS>UNITY_ATOM_ATTR
18 1
charge -1
@<TRIPOS>BOND
     1    18    19   ar
     2    19    20   ar
     3    19    11    1
     4    11    12   ar
     5    12    13   ar
     6    13    14   ar
     7    14     1    1
     8     1     2   ar
     9     2     3   ar
    10     3    21    1
    11    21    22    2
    12    21    23    1
    13    23    24   ar
    14    24    25    1
    15    24    26   ar
    16    26    27   ar
    17    27    28   ar
    18    28    29   ar
    19    29    30    1
    20     3     4   ar
    21     4     5   ar
    22     5     6    1
    23     5     7   ar
    24     7     8   ar
    25     8     9   ar
    26     9    10   ar
    27    14    15   ar
    28    15    16    1
    29    15    17   ar
    30    17    11   ar
    31    10     1   ar
    32    29    23   ar
    33    10     4   ar
@<TRIPOS>MOLECULE
*****
 30 33 0 0 0
SMALL
GASTEIGER

@<TRIPOS>ATOM
      1 N          62.0653   86.3450   11.4377 N.ar    1  UNL1       -0.3028
      2 C          62.3845   87.6047   12.1868 C.ar    1  UNL1        0.0834
      3 C          61.8562   88.7626   11.3929 C.ar    1  UNL1        0.0601
      4 C          61.2105   88.2184   10.1532 C.ar    1  UNL1        0.0481
      5 C          60.5215   88.8905    9.0027 C.ar    1  UNL1        0.1416
      6 F          60.3923   90.3846    8.9750 F       1  UNL1       -0.2041
      7 C          59.9618   88.0683    7.8799 C.ar    1  UNL1        0.0297
      8 C          60.0910   86.5742    7.9076 C.ar    1  UNL1        0.0038
      9 C          60.7800   85.9021    9.0581 C.ar    1  UNL1        0.0177
     10 C          61.3397   86.7243   10.1809 C.ar    1  UNL1        0.0664
     11 C          63.1023   82.1621   12.7334 C.ar    1  UNL1        0.0163
     12 C          62.4286   83.0989   13.6918 C.ar    1  UNL1        0.0028
     13 C          62.0830   84.4932   13.2599 C.ar    1  UNL1        0.0198
     14 C          62.4109   84.9507   11.8696 C.ar    1  UNL1        0.0916
     15 C          63.0846   84.0139   10.9111 C.ar    1  UNL1        0.1561
     16 F          63.4126   84.4714    9.5207 F       1  UNL1       -0.2026
     17 C          63.4302   82.6196   11.3430 C.ar    1  UNL1        0.0323
     18 O          64.3988   80.5498   14.3047 O.co2   1  UNL1       -0.5446
     19 C          63.4479   80.7679   13.1653 C.2     1  UNL1        0.0729
     20 O          62.8427   79.5918   12.4578 O.co2   1  UNL1       -0.5446
     21 C          61.9561   90.2104   11.7721 C.2     1  UNL1        0.1987
     22 O          60.7198   91.0578   11.8294 O.2     1  UNL1       -0.2865
     23 C          63.2925   90.8109   12.0941 C.ar    1  UNL1        0.0601
     24 C          63.8660   90.6688   13.4728 C.ar    1  UNL1        0.0615
     25 CL         63.1032   89.9262   14.5296 Cl      1  UNL1       -0.0821
     26 C          65.2023   91.2693   13.7949 C.ar    1  UNL1        0.0115
     27 C          65.9651   92.0119   12.7381 C.ar    1  UNL1        0.0017
     28 C          65.3915   92.1540   11.3594 C.ar    1  UNL1        0.0115
     29 C          64.0553   91.5535   11.0374 C.ar    1  UNL1        0.0615
     30 CL         63.4817   91.6956    9.6587 Cl      1  UNL1       -0.0821
@<TRIPOS>UNITY_ATOM_ATTR
18 1
charge -1
@<TRIPOS>BOND
     1    18    19   ar
     2    19    20   ar
     3    19    11    1
     4    11    12   ar
     5    12    13   ar
     6    13    14   ar
     7    14     1    1
     8     1     2   ar
     9     2     3   ar
    10     3    21    1
    11    21    22    2
    12    21    23    1
    13    23    24   ar
    14    24    25    1
    15    24    26   ar
    16    26    27   ar
    17    27    28   ar
    18    28    29   ar
    19    29    30    1
    20     3     4   ar
    21     4     5   ar
    22     5     6    1
    23     5     7   ar
    24     7     8   ar
    25     8     9   ar
    26     9    10   ar
    27    14    15   ar
    28    15    16    1
    29    15    17   ar
    30    17    11   ar
    31    10     1   ar
    32    29    23   ar
    33    10     4   ar
@<TRIPOS>MOLECULE
*****
 30 33 0 0 0
SMALL
GASTEIGER

@<TRIPOS>ATOM
      1 N          63.6778   86.8532   13.9214 N.ar    1  UNL1       -0.3028
      2 C          63.9569   88.2333   13.4042 C.ar    1  UNL1        0.0834
      3 C          63.8438   89.1905   14.5535 C.ar    1  UNL1        0.0601
      4 C          63.4949   88.4021   15.7810 C.ar    1  UNL1        0.0481
      5 C          63.2573   88.8130   17.2039 C.ar    1  UNL1        0.1416
      6 F          63.3599   90.2576   17.5945 F       1  UNL1       -0.2041
      7 C          62.9171   87.7792   18.2361 C.ar    1  UNL1        0.0297
      8 C          62.8146   86.3346   17.8455 C.ar    1  UNL1        0.0038
      9 C          63.0521   85.9238   16.4226 C.ar    1  UNL1        0.0177
     10 C          63.3923   86.9575   15.3903 C.ar    1  UNL1        0.0664
     11 C          63.6944   83.0648   11.4928 C.ar    1  UNL1        0.0163
     12 C          62.7569   84.1801   11.1364 C.ar    1  UNL1        0.0028
     13 C          62.7513   85.4428   11.9460 C.ar    1  UNL1        0.0198
     14 C          63.6833   85.5904   13.1119 C.ar    1  UNL1        0.0916
     15 C          64.6210   84.4750   13.4683 C.ar    1  UNL1        0.1561
     16 F          65.5530   84.6225   14.6343 F       1  UNL1       -0.2026
     17 C          64.6265   83.2123   12.6588 C.ar    1  UNL1        0.0323
     18 O          62.7755   80.6767   11.0427 O.co2   1  UNL1       -0.5446
     19 C          63.6999   81.8020   10.6833 C.2     1  UNL1        0.0729
     20 O          64.6299   81.6645    9.5144 O.co2   1  UNL1       -0.5446
     21 C          64.0444   90.6756   14.4870 C.2     1  UNL1        0.1987
     22 O          63.4512   91.5606   15.5428 O.2     1  UNL1       -0.2865
     23 C          64.8384   91.2757   13.3646 C.ar    1  UNL1        0.0601
     24 C          64.2014   91.4829   12.0225 C.ar    1  UNL1        0.0615
     25 CL         62.7705   91.0901   11.8028 Cl      1  UNL1       -0.0821
     26 C          64.9952   92.0829   10.9001 C.ar    1  UNL1        0.0115
     27 C          66.4261   92.4757   11.1199 C.ar    1  UNL1        0.0017
     28 C          67.0631   92.2685   12.4620 C.ar    1  UNL1        0.0115
     29 C          66.2692   91.6685   13.5844 C.ar    1  UNL1        0.0615
     30 CL         66.9062   91.4612   14.9265 Cl      1  UNL1       -0.0821
@<TRIPOS>UNITY_ATOM_ATTR
18 1
charge -1
@<TRIPOS>BOND
     1    18    19   ar
     2    19    20   ar
     3    19    11    1
     4    11    12   ar
     5    12    13   ar
     6    13    14   ar
     7    14     1    1
     8     1     2   ar
     9     2     3   ar
    10     3    21    1
    11    21    22    2
    12    21    23    1
    13    23    24   ar
    14    24    25    1
    15    24    26   ar
    16    26    27   ar
    17    27    28   ar
    18    28    29   ar
    19    29    30    1
    20     3     4   ar
    21     4     5   ar
    22     5     6    1
    23     5     7   ar
    24     7     8   ar
    25     8     9   ar
    26     9    10   ar
    27    14    15   ar
    28    15    16    1
    29    15    17   ar
    30    17    11   ar
    31    10     1   ar
    32    29    23   ar
    33    10     4   ar
@<TRIPOS>MOLECULE
*****
 30 33 0 0 0
SMALL
GASTEIGER

@<TRIPOS>ATOM
      1 N          63.6839   86.8497   13.9215 N.ar    1  UNL1       -0.3028
      2 C          63.9649   88.2292   13.4039 C.ar    1  UNL1        0.0834
      3 C          63.8496   89.1875   14.5521 C.ar    1  UNL1        0.0601
      4 C          63.4973   88.4002   15.7793 C.ar    1  UNL1        0.0481
      5 C          63.2566   88.8124   17.2013 C.ar    1  UNL1        0.1416
      6 F          63.3590   90.2573   17.5910 F       1  UNL1       -0.2041
      7 C          62.9135   87.7797   18.2336 C.ar    1  UNL1        0.0297
      8 C          62.8111   86.3348   17.8439 C.ar    1  UNL1        0.0038
      9 C          63.0518   85.9227   16.4219 C.ar    1  UNL1        0.0177
     10 C          63.3949   86.9554   15.3896 C.ar    1  UNL1        0.0664
     11 C          63.7042   83.0593   11.4961 C.ar    1  UNL1        0.0163
     12 C          62.7679   84.1747   11.1367 C.ar    1  UNL1        0.0028
     13 C          62.7612   85.4381   11.9451 C.ar    1  UNL1        0.0198
     14 C          63.6906   85.5862   13.1130 C.ar    1  UNL1        0.0916
     15 C          64.6270   84.4707   13.4725 C.ar    1  UNL1        0.1561
     16 F          65.5565   84.6188   14.6404 F       1  UNL1       -0.2026
     17 C          64.6337   83.2073   12.6640 C.ar    1  UNL1        0.0323
     18 O          64.6403   81.6588    9.5182 O.co2   1  UNL1       -0.5446
     19 C          63.7110   81.7958   10.6876 C.2     1  UNL1        0.0729
     20 O          62.7884   80.6695   11.0485 O.co2   1  UNL1       -0.5446
     21 C          64.0512   90.6723   14.4848 C.2     1  UNL1        0.1987
     22 O          63.4592   91.5582   15.5406 O.2     1  UNL1       -0.2865
     23 C          64.8448   91.2714   13.3617 C.ar    1  UNL1        0.0601
     24 C          66.2774   91.6591   13.5791 C.ar    1  UNL1        0.0615
     25 CL         66.9164   91.4477   14.9196 Cl      1  UNL1       -0.0821
     26 C          67.0711   92.2581   12.4560 C.ar    1  UNL1        0.0115
     27 C          66.4320   92.4695   11.1155 C.ar    1  UNL1        0.0017
     28 C          64.9994   92.0818   10.8981 C.ar    1  UNL1        0.0115
     29 C          64.2057   91.4828   12.0212 C.ar    1  UNL1        0.0615
     30 CL         62.7731   91.0951   11.8038 Cl      1  UNL1       -0.0821
@<TRIPOS>UNITY_ATOM_ATTR
18 1
charge -1
@<TRIPOS>BOND
     1    18    19   ar
     2    19    20   ar
     3    19    11    1
     4    11    12   ar
     5    12    13   ar
     6    13    14   ar
     7    14     1    1
     8     1     2   ar
     9     2     3   ar
    10     3    21    1
    11    21    22    2
    12    21    23    1
    13    23    24   ar
    14    24    25    1
    15    24    26   ar
    16    26    27   ar
    17    27    28   ar
    18    28    29   ar
    19    29    30    1
    20     3     4   ar
    21     4     5   ar
    22     5     6    1
    23     5     7   ar
    24     7     8   ar
    25     8     9   ar
    26     9    10   ar
    27    14    15   ar
    28    15    16    1
    29    15    17   ar
    30    17    11   ar
    31    10     1   ar
    32    29    23   ar
    33    10     4   ar
@<TRIPOS>MOLECULE
*****
 30 33 0 0 0
SMALL
GASTEIGER

@<TRIPOS>ATOM
      1 N          62.4635   86.5687   11.3581 N.ar    1  UNL1       -0.3028
      2 C          63.1827   87.7827   11.8670 C.ar    1  UNL1        0.0834
      3 C          62.6500   88.9782   11.1341 C.ar    1  UNL1        0.0601
      4 C          61.6016   88.5030   10.1722 C.ar    1  UNL1        0.0481
      5 C          60.7370   89.2338    9.1882 C.ar    1  UNL1        0.1416
      6 F          60.8522   90.7230    9.0498 F       1  UNL1       -0.2041
      7 C          59.7572   88.4756    8.3427 C.ar    1  UNL1        0.0297
      8 C          59.6420   86.9864    8.4812 C.ar    1  UNL1        0.0038
      9 C          60.5066   86.2555    9.4651 C.ar    1  UNL1        0.0177
     10 C          61.4864   87.0138   10.3107 C.ar    1  UNL1        0.0664
     11 C          63.1220   82.3345   12.7323 C.ar    1  UNL1        0.0163
     12 C          62.5845   83.3582   13.6879 C.ar    1  UNL1        0.0028
     13 C          62.3651   84.7696   13.2298 C.ar    1  UNL1        0.0198
     14 C          62.6830   85.1573   11.8162 C.ar    1  UNL1        0.0916
     15 C          63.2205   84.1336   10.8605 C.ar    1  UNL1        0.1561
     16 F          63.5384   84.5213    9.4468 F       1  UNL1       -0.2026
     17 C          63.4399   82.7222   11.3186 C.ar    1  UNL1        0.0323
     18 O          62.7306   79.7841   12.4292 O.co2   1  UNL1       -0.5446
     19 C          63.3414   80.9231   13.1903 C.2     1  UNL1        0.0729
     20 O          64.1717   80.6508   14.4096 O.co2   1  UNL1       -0.5446
     21 C          63.0886   90.3993   11.3288 C.2     1  UNL1        0.1987
     22 O          62.7878   91.4276   10.2791 O.2     1  UNL1       -0.2865
     23 C          63.8281   90.7922   12.5734 C.ar    1  UNL1        0.0601
     24 C          65.0834   91.6074   12.4742 C.ar    1  UNL1        0.0615
     25 CL         65.5991   92.0296   11.1304 Cl      1  UNL1       -0.0821
     26 C          65.8229   92.0002   13.7186 C.ar    1  UNL1        0.0115
     27 C          65.3071   91.5779   15.0623 C.ar    1  UNL1        0.0017
     28 C          64.0518   90.7627   15.1616 C.ar    1  UNL1        0.0115
     29 C          63.3123   90.3699   13.9171 C.ar    1  UNL1        0.0615
     30 CL         62.0571   89.5547   14.0163 Cl      1  UNL1       -0.0821
@<TRIPOS>UNITY_ATOM_ATTR
18 1
charge -1
@<TRIPOS>BOND
     1    18    19   ar
     2    19    20   ar
     3    19    11    1
     4    11    12   ar
     5    12    13   ar
     6    13    14   ar
     7    14     1    1
     8     1     2   ar
     9     2     3   ar
    10     3    21    1
    11    21    22    2
    12    21    23    1
    13    23    24   ar
    14    24    25    1
    15    24    26   ar
    16    26    27   ar
    17    27    28   ar
    18    28    29   ar
    19    29    30    1
    20     3     4   ar
    21     4     5   ar
    22     5     6    1
    23     5     7   ar
    24     7     8   ar
    25     8     9   ar
    26     9    10   ar
    27    14    15   ar
    28    15    16    1
    29    15    17   ar
    30    17    11   ar
    31    10     1   ar
    32    29    23   ar
    33    10     4   ar
