@<TRIPOS>MOLECULE
*****
 18 19 0 0 0
SMALL
GASTEIGER

@<TRIPOS>ATOM
      1 C          62.0712   85.3507   10.8282 C.2     1  UNL1        0.0063
      2 C          63.1775   84.5842   10.1659 C.2     1  UNL1        0.0421
      3 C          61.6507   87.9063   10.6226 C.ar    1  UNL1        0.1386
      4 C          61.0132   89.0651    9.9150 C.ar    1  UNL1        0.0369
      5 C          60.1587   88.8272    8.7053 C.ar    1  UNL1        0.0031
      6 C          59.9418   87.4305    8.2033 C.ar    1  UNL1        0.0002
      7 C          60.5792   86.2717    8.9109 C.ar    1  UNL1        0.0030
      8 C          61.4337   86.5096   10.1205 C.ar    1  UNL1        0.0341
      9 C          63.0191   89.5220   12.1283 C.3     1  UNL1        0.2525
     10 O          62.5052   88.1442   11.8323 O.3     1  UNL1       -0.4714
     11 C          63.8150   83.4253   10.8735 C.2     1  UNL1        0.1957
     12 O          64.7014   82.4805   10.1174 O.2     1  UNL1       -0.2866
     13 C          63.5661   83.2113   12.3371 C.ar    1  UNL1        0.0420
     14 C          64.3927   83.9423   13.3532 C.ar    1  UNL1        0.0239
     15 C          64.1438   83.7282   14.8168 C.ar    1  UNL1        0.0990
     16 N          63.0684   82.7832   15.2644 N.ar    1  UNL1       -0.2423
     17 C          62.2418   82.0521   14.2483 C.ar    1  UNL1        0.0990
     18 C          62.4907   82.2662   12.7847 C.ar    1  UNL1        0.0239
@<TRIPOS>BOND
     1     9    10    1
     2    10     3    1
     3     3     4   ar
     4     4     5   ar
     5     5     6   ar
     6     6     7   ar
     7     7     8   ar
     8     8     1    1
     9     1     2    2
    10     2    11    1
    11    11    12    2
    12    11    13    1
    13    13    14   ar
    14    14    15   ar
    15    15    16   ar
    16    16    17   ar
    17    17    18   ar
    18     8     3   ar
    19    18    13   ar
@<TRIPOS>MOLECULE
*****
 18 19 0 0 0
SMALL
GASTEIGER

@<TRIPOS>ATOM
      1 C          62.9357   84.9688   11.7022 C.2     1  UNL1        0.0063
      2 C          61.6958   85.7804   11.4693 C.2     1  UNL1        0.0421
      3 C          62.6201   83.5047   13.8252 C.ar    1  UNL1        0.1386
      4 C          62.5220   82.1531   14.4682 C.ar    1  UNL1        0.0369
      5 C          62.6413   80.9140   13.6314 C.ar    1  UNL1        0.0031
      6 C          62.8586   81.0265   12.1515 C.ar    1  UNL1        0.0002
      7 C          62.9568   82.3780   11.5085 C.ar    1  UNL1        0.0030
      8 C          62.8375   83.6172   12.3453 C.ar    1  UNL1        0.0341
      9 C          63.7001   85.2763   15.3890 C.3     1  UNL1        0.2525
     10 O          62.5009   84.7439   14.6620 O.3     1  UNL1       -0.4714
     11 C          61.7939   87.1319   10.8263 C.2     1  UNL1        0.1957
     12 O          62.7579   88.1490   11.3615 O.2     1  UNL1       -0.2866
     13 C          60.9281   87.4665    9.6480 C.ar    1  UNL1        0.0420
     14 C          60.3136   86.3676    8.8327 C.ar    1  UNL1        0.0239
     15 C          59.4478   86.7021    7.6544 C.ar    1  UNL1        0.0990
     16 N          59.1964   88.1356    7.2914 N.ar    1  UNL1       -0.2423
     17 C          59.8109   89.2347    8.1067 C.ar    1  UNL1        0.0990
     18 C          60.6767   88.9001    9.2850 C.ar    1  UNL1        0.0239
@<TRIPOS>BOND
     1     9    10    1
     2    10     3    1
     3     3     4   ar
     4     4     5   ar
     5     5     6   ar
     6     6     7   ar
     7     7     8   ar
     8     8     1    1
     9     1     2    2
    10     2    11    1
    11    11    12    2
    12    11    13    1
    13    13    14   ar
    14    14    15   ar
    15    15    16   ar
    16    16    17   ar
    17    17    18   ar
    18     8     3   ar
    19    18    13   ar
@<TRIPOS>MOLECULE
*****
 18 19 0 0 0
SMALL
GASTEIGER

@<TRIPOS>ATOM
      1 C          62.2215   86.2457   10.3960 C.2     1  UNL1        0.0063
      2 C          61.7427   85.6963   11.7071 C.2     1  UNL1        0.0421
      3 C          61.0981   88.4380    9.5703 C.ar    1  UNL1        0.1386
      4 C          60.1388   89.1419    8.6569 C.ar    1  UNL1        0.0369
      5 C          59.3436   88.3574    7.6558 C.ar    1  UNL1        0.0031
      6 C          59.5078   86.8690    7.5681 C.ar    1  UNL1        0.0002
      7 C          60.4670   86.1651    8.4815 C.ar    1  UNL1        0.0030
      8 C          61.2622   86.9496    9.4826 C.ar    1  UNL1        0.0341
      9 C          62.6307   90.4563   10.1427 C.3     1  UNL1        0.2525
     10 O          61.8932   89.2225   10.5715 O.3     1  UNL1       -0.4714
     11 C          62.7019   84.9924   12.6205 C.2     1  UNL1        0.1957
     12 O          63.6555   85.7868   13.4629 O.2     1  UNL1       -0.2866
     13 C          62.7076   83.4941   12.6916 C.ar    1  UNL1        0.0420
     14 C          62.3470   82.8026   13.9729 C.ar    1  UNL1        0.0239
     15 C          62.3527   81.3043   14.0439 C.ar    1  UNL1        0.0990
     16 N          62.7189   80.4974   12.8336 N.ar    1  UNL1       -0.2423
     17 C          63.0795   81.1889   11.5522 C.ar    1  UNL1        0.0990
     18 C          63.0738   82.6872   11.4812 C.ar    1  UNL1        0.0239
@<TRIPOS>BOND
     1     9    10    1
     2    10     3    1
     3     3     4   ar
     4     4     5   ar
     5     5     6   ar
     6     6     7   ar
     7     7     8   ar
     8     8     1    1
     9     1     2    2
    10     2    11    1
    11    11    12    2
    12    11    13    1
    13    13    14   ar
    14    14    15   ar
    15    15    16   ar
    16    16    17   ar
    17    17    18   ar
    18     8     3   ar
    19    18    13   ar
@<TRIPOS>MOLECULE
*****
 18 19 0 0 0
SMALL
GASTEIGER

@<TRIPOS>ATOM
      1 C          62.5311   88.7667   11.0777 C.2     1  UNL1        0.0063
      2 C          62.5017   90.2085   11.4906 C.2     1  UNL1        0.0421
      3 C          61.6368   86.8339    9.5895 C.ar    1  UNL1        0.1386
      4 C          60.7279   86.3472    8.5001 C.ar    1  UNL1        0.0369
      5 C          59.8044   87.3064    7.8093 C.ar    1  UNL1        0.0031
      6 C          59.7898   88.7523    8.2079 C.ar    1  UNL1        0.0002
      7 C          60.6987   89.2391    9.2974 C.ar    1  UNL1        0.0030
      8 C          61.6222   88.2799    9.9882 C.ar    1  UNL1        0.0341
      9 C          62.1218   85.1861   11.5386 C.3     1  UNL1        0.2525
     10 O          62.5602   85.8747   10.2803 O.3     1  UNL1       -0.4714
     11 C          63.4105   90.6953   12.5800 C.2     1  UNL1        0.1957
     12 O          63.1806   90.2628   13.9978 O.2     1  UNL1       -0.2866
     13 C          64.5493   91.6147   12.2517 C.ar    1  UNL1        0.0420
     14 C          65.5288   92.0059   13.3183 C.ar    1  UNL1        0.0239
     15 C          66.6677   92.9253   12.9900 C.ar    1  UNL1        0.0990
     16 N          66.8270   93.4536   11.5952 N.ar    1  UNL1       -0.2423
     17 C          65.8474   93.0624   10.5286 C.ar    1  UNL1        0.0990
     18 C          64.7086   92.1430   10.8568 C.ar    1  UNL1        0.0239
@<TRIPOS>BOND
     1     9    10    1
     2    10     3    1
     3     3     4   ar
     4     4     5   ar
     5     5     6   ar
     6     6     7   ar
     7     7     8   ar
     8     8     1    1
     9     1     2    2
    10     2    11    1
    11    11    12    2
    12    11    13    1
    13    13    14   ar
    14    14    15   ar
    15    15    16   ar
    16    16    17   ar
    17    17    18   ar
    18     8     3   ar
    19    18    13   ar
@<TRIPOS>MOLECULE
*****
 18 19 0 0 0
SMALL
GASTEIGER

@<TRIPOS>ATOM
      1 C          62.5651   90.3039   12.1546 C.2     1  UNL1        0.0063
      2 C          62.2996   90.3164   10.6783 C.2     1  UNL1        0.0421
      3 C          64.3940   90.3287   13.9997 C.ar    1  UNL1        0.1386
      4 C          65.6951   90.8519   14.5321 C.ar    1  UNL1        0.0369
      5 C          66.4683   91.8733   13.7519 C.ar    1  UNL1        0.0031
      6 C          65.9405   92.3717   12.4392 C.ar    1  UNL1        0.0002
      7 C          64.6394   91.8485   11.9068 C.ar    1  UNL1        0.0030
      8 C          63.8662   90.8270   12.6871 C.ar    1  UNL1        0.0341
      9 C          63.2237   89.5900   16.1984 C.3     1  UNL1        0.2525
     10 O          63.6208   89.3072   14.7799 O.3     1  UNL1       -0.4714
     11 C          60.9985   89.7933   10.1458 C.2     1  UNL1        0.1957
     12 O          59.7375   90.5823   10.3391 O.2     1  UNL1       -0.2866
     13 C          60.9584   88.4811    9.4201 C.ar    1  UNL1        0.0420
     14 C          59.8047   88.1582    8.5175 C.ar    1  UNL1        0.0239
     15 C          59.7646   86.8461    7.7918 C.ar    1  UNL1        0.0990
     16 N          60.8782   85.8569    7.9686 N.ar    1  UNL1       -0.2423
     17 C          62.0320   86.1798    8.8712 C.ar    1  UNL1        0.0990
     18 C          62.0721   87.4919    9.5970 C.ar    1  UNL1        0.0239
@<TRIPOS>BOND
     1     9    10    1
     2    10     3    1
     3     3     4   ar
     4     4     5   ar
     5     5     6   ar
     6     6     7   ar
     7     7     8   ar
     8     8     1    1
     9     1     2    2
    10     2    11    1
    11    11    12    2
    12    11    13    1
    13    13    14   ar
    14    14    15   ar
    15    15    16   ar
    16    16    17   ar
    17    17    18   ar
    18     8     3   ar
    19    18    13   ar
@<TRIPOS>MOLECULE
*****
 18 19 0 0 0
SMALL
GASTEIGER

@<TRIPOS>ATOM
      1 C          62.3769   86.3741   10.5668 C.2     1  UNL1        0.0063
      2 C          62.1354   85.0096   11.1413 C.2     1  UNL1        0.0421
      3 C          61.0994   88.4576    9.6852 C.ar    1  UNL1        0.1386
      4 C          60.0951   89.0670    8.7524 C.ar    1  UNL1        0.0369
      5 C          59.3640   88.2024    7.7686 C.ar    1  UNL1        0.0031
      6 C          59.6372   86.7284    7.7174 C.ar    1  UNL1        0.0002
      7 C          60.6415   86.1190    8.6501 C.ar    1  UNL1        0.0030
      8 C          61.3725   86.9836    9.6340 C.ar    1  UNL1        0.0341
      9 C          62.5518   90.5499   10.1976 C.3     1  UNL1        0.2525
     10 O          61.8304   89.3221   10.6690 O.3     1  UNL1       -0.4714
     11 C          63.1397   84.4002   12.0740 C.2     1  UNL1        0.1957
     12 O          64.0855   83.3484   11.5746 O.2     1  UNL1       -0.2866
     13 C          63.1981   84.8424   13.5061 C.ar    1  UNL1        0.0420
     14 C          62.3608   84.1493   14.5398 C.ar    1  UNL1        0.0239
     15 C          62.4193   84.5915   15.9720 C.ar    1  UNL1        0.0990
     16 N          63.3151   85.7267   16.3704 N.ar    1  UNL1       -0.2423
     17 C          64.1525   86.4198   15.3367 C.ar    1  UNL1        0.0990
     18 C          64.0940   85.9776   13.9046 C.ar    1  UNL1        0.0239
@<TRIPOS>BOND
     1     9    10    1
     2    10     3    1
     3     3     4   ar
     4     4     5   ar
     5     5     6   ar
     6     6     7   ar
     7     7     8   ar
     8     8     1    1
     9     1     2    2
    10     2    11    1
    11    11    12    2
    12    11    13    1
    13    13    14   ar
    14    14    15   ar
    15    15    16   ar
    16    16    17   ar
    17    17    18   ar
    18     8     3   ar
    19    18    13   ar
@<TRIPOS>MOLECULE
*****
 18 19 0 0 0
SMALL
GASTEIGER

@<TRIPOS>ATOM
      1 C          62.8431   85.0275   12.5972 C.2     1  UNL1        0.0063
      2 C          61.9929   85.4646   11.4413 C.2     1  UNL1        0.0421
      3 C          63.8076   82.6319   12.3132 C.ar    1  UNL1        0.1386
      4 C          63.8388   81.1877   12.7174 C.ar    1  UNL1        0.0369
      5 C          62.9367   80.6950   13.8099 C.ar    1  UNL1        0.0031
      6 C          62.0034   81.6465   14.4981 C.ar    1  UNL1        0.0002
      7 C          61.9723   83.0906   14.0939 C.ar    1  UNL1        0.0030
      8 C          62.8743   83.5833   13.0014 C.ar    1  UNL1        0.0341
      9 C          64.2401   83.1090    9.7962 C.3     1  UNL1        0.2525
     10 O          64.7097   83.1246   11.2207 O.3     1  UNL1       -0.4714
     11 C          61.9617   86.9087   11.0371 C.2     1  UNL1        0.1957
     12 O          62.7714   87.9178   11.7962 O.2     1  UNL1       -0.2866
     13 C          61.1207   87.3439    9.8737 C.ar    1  UNL1        0.0420
     14 C          60.4960   86.3185    8.9747 C.ar    1  UNL1        0.0239
     15 C          59.6550   86.7537    7.8113 C.ar    1  UNL1        0.0990
     16 N          59.4386   88.2143    7.5471 N.ar    1  UNL1       -0.2423
     17 C          60.0633   89.2398    8.4462 C.ar    1  UNL1        0.0990
     18 C          60.9043   88.8046    9.6095 C.ar    1  UNL1        0.0239
@<TRIPOS>BOND
     1     9    10    1
     2    10     3    1
     3     3     4   ar
     4     4     5   ar
     5     5     6   ar
     6     6     7   ar
     7     7     8   ar
     8     8     1    1
     9     1     2    2
    10     2    11    1
    11    11    12    2
    12    11    13    1
    13    13    14   ar
    14    14    15   ar
    15    15    16   ar
    16    16    17   ar
    17    17    18   ar
    18     8     3   ar
    19    18    13   ar
@<TRIPOS>MOLECULE
*****
 18 19 0 0 0
SMALL
GASTEIGER

@<TRIPOS>ATOM
      1 C          62.4548   85.8020   11.3337 C.2     1  UNL1        0.0063
      2 C          62.6957   84.3575   11.6581 C.2     1  UNL1        0.0421
      3 C          60.5379   87.2261   10.3102 C.ar    1  UNL1        0.1386
      4 C          59.6801   87.5983    9.1373 C.ar    1  UNL1        0.0369
      5 C          59.8814   86.9190    7.8152 C.ar    1  UNL1        0.0031
      6 C          60.9404   85.8673    7.6660 C.ar    1  UNL1        0.0002
      7 C          61.7982   85.4950    8.8388 C.ar    1  UNL1        0.0030
      8 C          61.5969   86.1744   10.1609 C.ar    1  UNL1        0.0341
      9 C          59.7286   89.2756   11.6865 C.3     1  UNL1        0.2525
     10 O          60.3366   87.9054   11.6322 O.3     1  UNL1       -0.4714
     11 C          63.5535   83.9851   12.8309 C.2     1  UNL1        0.1957
     12 O          64.5359   82.8575   12.7136 O.2     1  UNL1       -0.2866
     13 C          63.4291   84.7403   14.1209 C.ar    1  UNL1        0.0420
     14 C          64.2890   85.9435   14.3716 C.ar    1  UNL1        0.0239
     15 C          64.1645   86.6986   15.6616 C.ar    1  UNL1        0.0990
     16 N          63.1802   86.2506   16.7010 N.ar    1  UNL1       -0.2423
     17 C          62.3203   85.0473   16.4504 C.ar    1  UNL1        0.0990
     18 C          62.4448   84.2921   15.1604 C.ar    1  UNL1        0.0239
@<TRIPOS>BOND
     1     9    10    1
     2    10     3    1
     3     3     4   ar
     4     4     5   ar
     5     5     6   ar
     6     6     7   ar
     7     7     8   ar
     8     8     1    1
     9     1     2    2
    10     2    11    1
    11    11    12    2
    12    11    13    1
    13    13    14   ar
    14    14    15   ar
    15    15    16   ar
    16    16    17   ar
    17    17    18   ar
    18     8     3   ar
    19    18    13   ar
@<TRIPOS>MOLECULE
*****
 18 19 0 0 0
SMALL
GASTEIGER

@<TRIPOS>ATOM
      1 C          63.1190   88.4235   12.4502 C.2     1  UNL1        0.0063
      2 C          63.0787   89.9181   12.3292 C.2     1  UNL1        0.0421
      3 C          62.3675   86.0890   11.5927 C.ar    1  UNL1        0.1386
      4 C          61.7529   85.2333   10.5250 C.ar    1  UNL1        0.0369
      5 C          61.2753   85.8565    9.2469 C.ar    1  UNL1        0.0031
      6 C          61.4122   87.3354    9.0366 C.ar    1  UNL1        0.0002
      7 C          62.0268   88.1910   10.1043 C.ar    1  UNL1        0.0030
      8 C          62.5044   87.5678   11.3824 C.ar    1  UNL1        0.0341
      9 C          63.6822   84.2217   12.8316 C.3     1  UNL1        0.2525
     10 O          62.8451   85.4658   12.8708 O.3     1  UNL1       -0.4714
     11 C          63.6932   90.7738   13.3969 C.2     1  UNL1        0.1957
     12 O          63.1875   90.6925   14.8068 O.2     1  UNL1       -0.2866
     13 C          64.8135   91.7108   13.0548 C.ar    1  UNL1        0.0420
     14 C          64.9290   92.2664   11.6664 C.ar    1  UNL1        0.0239
     15 C          66.0493   93.2034   11.3243 C.ar    1  UNL1        0.0990
     16 N          67.0541   93.5847   12.3707 N.ar    1  UNL1       -0.2423
     17 C          66.9387   93.0290   13.7592 C.ar    1  UNL1        0.0990
     18 C          65.8184   92.0921   14.1013 C.ar    1  UNL1        0.0239
@<TRIPOS>BOND
     1     9    10    1
     2    10     3    1
     3     3     4   ar
     4     4     5   ar
     5     5     6   ar
     6     6     7   ar
     7     7     8   ar
     8     8     1    1
     9     1     2    2
    10     2    11    1
    11    11    12    2
    12    11    13    1
    13    13    14   ar
    14    14    15   ar
    15    15    16   ar
    16    16    17   ar
    17    17    18   ar
    18     8     3   ar
    19    18    13   ar
