@<TRIPOS>MOLECULE
*****
 22 24 0 0 0
SMALL
GASTEIGER

@<TRIPOS>ATOM
      1 C          63.4505   90.1748   12.3687 C.ar    1  UNL1        0.0206
      2 C          63.7897   89.3591   13.5808 C.ar    1  UNL1        0.0989
      3 N          64.8483   89.8335   14.5318 N.ar    1  UNL1       -0.2423
      4 C          65.5676   91.1236   14.2706 C.ar    1  UNL1        0.0985
      5 C          66.6487   91.8403   15.0240 C.ar    1  UNL1        0.0392
      6 C          66.9776   93.0990   14.2774 C.ar    1  UNL1        0.0779
      7 N          66.0998   93.1602   13.0626 N.ar    1  UNL1       -0.3165
      8 C          65.2284   91.9393   13.0584 C.ar    1  UNL1        0.0782
      9 C          64.1698   91.4649   12.1074 C.ar    1  UNL1        0.0203
     10 C          61.6198   86.5665    9.1085 C.3     1  UNL1        0.0310
     11 C          61.4766   87.8963    9.7875 C.ar    1  UNL1       -0.0218
     12 C          60.2747   88.7517    9.5156 C.ar    1  UNL1       -0.0043
     13 C          60.1315   90.0815   10.1946 C.ar    1  UNL1       -0.0003
     14 C          61.1901   90.5559   11.1457 C.ar    1  UNL1        0.0000
     15 C          62.3919   89.7005   11.4176 C.ar    1  UNL1        0.0012
     16 C          62.5351   88.3707   10.7385 C.ar    1  UNL1       -0.0042
     17 C          66.0943   94.2508   12.0327 C.3     1  UNL1        0.1920
     18 C          66.8125   94.0561   10.7303 C.2     1  UNL1        0.2488
     19 O          67.6533   92.8331   10.5130 O.2     1  UNL1       -0.2728
     20 N          66.6898   95.0844    9.6452 N.am    1  UNL1       -0.2744
     21 C          67.4079   94.8897    8.3427 C.3     1  UNL1        0.1150
     22 C          65.8489   96.3074    9.8623 C.3     1  UNL1        0.1150
@<TRIPOS>BOND
     1    10    11    1
     2    11    12   ar
     3    12    13   ar
     4    13    14   ar
     5    14    15   ar
     6    15     1    1
     7     1     2   ar
     8     2     3   ar
     9     3     4   ar
    10     4     5   ar
    11     5     6   ar
    12     6     7   ar
    13     7    17    1
    14    17    18    1
    15    18    19    2
    16    18    20   am
    17    20    21    1
    18    20    22    1
    19     7     8   ar
    20     8     9   ar
    21    15    16   ar
    22    16    11   ar
    23     9     1   ar
    24     8     4   ar
@<TRIPOS>MOLECULE
*****
 22 24 0 0 0
SMALL
GASTEIGER

@<TRIPOS>ATOM
      1 C          62.1960   86.8751   10.9552 C.ar    1  UNL1        0.0206
      2 C          62.4204   88.2875   11.4077 C.ar    1  UNL1        0.0989
      3 N          63.1936   88.5586   12.6641 N.ar    1  UNL1       -0.2423
      4 C          63.7423   87.4173   13.4681 C.ar    1  UNL1        0.0985
      5 C          64.5376   87.3760   14.7393 C.ar    1  UNL1        0.0392
      6 C          64.8046   85.9381   15.0725 C.ar    1  UNL1        0.0779
      7 N          64.1744   85.0907   14.0072 N.ar    1  UNL1       -0.3165
      8 C          63.5179   86.0049   13.0156 C.ar    1  UNL1        0.0782
      9 C          62.7447   85.7338   11.7592 C.ar    1  UNL1        0.0203
     10 C          61.8384   84.6122    6.2914 C.3     1  UNL1        0.0310
     11 C          61.2440   85.4725    7.3669 C.ar    1  UNL1       -0.0218
     12 C          59.8764   86.0615    7.1858 C.ar    1  UNL1       -0.0043
     13 C          59.2820   86.9218    8.2613 C.ar    1  UNL1       -0.0003
     14 C          60.0552   87.1930    9.5178 C.ar    1  UNL1        0.0000
     15 C          61.4227   86.6039    9.6988 C.ar    1  UNL1        0.0012
     16 C          62.0171   85.7436    8.6233 C.ar    1  UNL1       -0.0042
     17 C          64.1967   83.5922   13.9445 C.3     1  UNL1        0.1920
     18 C          63.0186   82.8034   14.4341 C.2     1  UNL1        0.2488
     19 O          62.4949   83.0212   15.8227 O.2     1  UNL1       -0.2728
     20 N          62.3641   81.7967   13.5351 N.am    1  UNL1       -0.2744
     21 C          61.1860   81.0078   14.0247 C.3     1  UNL1        0.1150
     22 C          62.8878   81.5787   12.1465 C.3     1  UNL1        0.1150
@<TRIPOS>BOND
     1    10    11    1
     2    11    12   ar
     3    12    13   ar
     4    13    14   ar
     5    14    15   ar
     6    15     1    1
     7     1     2   ar
     8     2     3   ar
     9     3     4   ar
    10     4     5   ar
    11     5     6   ar
    12     6     7   ar
    13     7    17    1
    14    17    18    1
    15    18    19    2
    16    18    20   am
    17    20    21    1
    18    20    22    1
    19     7     8   ar
    20     8     9   ar
    21    15    16   ar
    22    16    11   ar
    23     9     1   ar
    24     8     4   ar
@<TRIPOS>MOLECULE
*****
 22 24 0 0 0
SMALL
GASTEIGER

@<TRIPOS>ATOM
      1 C          62.2368   86.9438   11.0550 C.ar    1  UNL1        0.0206
      2 C          62.6601   85.8104   11.9418 C.ar    1  UNL1        0.0989
      3 N          63.4203   86.0897   13.2043 N.ar    1  UNL1       -0.2423
      4 C          63.7572   87.5022   13.5801 C.ar    1  UNL1        0.0985
      5 C          64.4905   88.0809   14.7538 C.ar    1  UNL1        0.0392
      6 C          64.5204   89.5718   14.5924 C.ar    1  UNL1        0.0779
      7 N          63.8056   89.9146   13.3190 N.ar    1  UNL1       -0.3165
      8 C          63.3339   88.6355   12.6934 C.ar    1  UNL1        0.0782
      9 C          62.5737   88.3563   11.4309 C.ar    1  UNL1        0.0203
     10 C          61.9181   84.6337    6.4116 C.3     1  UNL1        0.0310
     11 C          61.3172   85.5095    7.4707 C.ar    1  UNL1       -0.0218
     12 C          59.9560   86.1062    7.2672 C.ar    1  UNL1       -0.0043
     13 C          59.3552   86.9821    8.3264 C.ar    1  UNL1       -0.0003
     14 C          60.1154   87.2613    9.5890 C.ar    1  UNL1        0.0000
     15 C          61.4765   86.6646    9.7924 C.ar    1  UNL1        0.0012
     16 C          62.0774   85.7887    8.7333 C.ar    1  UNL1       -0.0042
     17 C          63.5987   91.2943   12.7679 C.3     1  UNL1        0.1920
     18 C          64.3494   91.7343   11.5461 C.2     1  UNL1        0.2488
     19 O          63.7594   91.5164   10.1844 O.2     1  UNL1       -0.2728
     20 N          65.6902   92.3921   11.6861 N.am    1  UNL1       -0.2744
     21 C          66.4409   92.8320   10.4642 C.3     1  UNL1        0.1150
     22 C          66.2803   92.6099   13.0477 C.3     1  UNL1        0.1150
@<TRIPOS>BOND
     1    10    11    1
     2    11    12   ar
     3    12    13   ar
     4    13    14   ar
     5    14    15   ar
     6    15     1    1
     7     1     2   ar
     8     2     3   ar
     9     3     4   ar
    10     4     5   ar
    11     5     6   ar
    12     6     7   ar
    13     7    17    1
    14    17    18    1
    15    18    19    2
    16    18    20   am
    17    20    21    1
    18    20    22    1
    19     7     8   ar
    20     8     9   ar
    21    15    16   ar
    22    16    11   ar
    23     9     1   ar
    24     8     4   ar
@<TRIPOS>MOLECULE
*****
 22 24 0 0 0
SMALL
GASTEIGER

@<TRIPOS>ATOM
      1 C          62.1220   88.4880   10.7192 C.ar    1  UNL1        0.0206
      2 C          61.9597   89.9761   10.6232 C.ar    1  UNL1        0.0989
      3 N          62.5615   90.8652   11.6707 N.ar    1  UNL1       -0.2423
      4 C          63.3255   90.2663   12.8142 C.ar    1  UNL1        0.0985
      5 C          64.0253   90.8856   13.9877 C.ar    1  UNL1        0.0392
      6 C          64.6200   89.7802   14.8089 C.ar    1  UNL1        0.0779
      7 N          64.2877   88.4778   14.1430 N.ar    1  UNL1       -0.3165
      8 C          63.4877   88.7782   12.9103 C.ar    1  UNL1        0.0782
      9 C          62.8860   87.8891   11.8628 C.ar    1  UNL1        0.0203
     10 C          62.6258   84.6861    7.2133 C.3     1  UNL1        0.0310
     11 C          61.7722   85.6978    7.9188 C.ar    1  UNL1       -0.0218
     12 C          60.3168   85.8203    7.5767 C.ar    1  UNL1       -0.0043
     13 C          59.4631   86.8321    8.2822 C.ar    1  UNL1       -0.0003
     14 C          60.0649   87.7213    9.3297 C.ar    1  UNL1        0.0000
     15 C          61.5202   87.5988    9.6717 C.ar    1  UNL1        0.0012
     16 C          62.3739   86.5870    8.9662 C.ar    1  UNL1       -0.0042
     17 C          64.6857   87.1143   14.6252 C.3     1  UNL1        0.1920
     18 C          63.6882   86.2503   15.3383 C.2     1  UNL1        0.2488
     19 O          62.9712   86.7739   16.5473 O.2     1  UNL1       -0.2728
     20 N          63.4078   84.8627   14.8424 N.am    1  UNL1       -0.2744
     21 C          62.4103   83.9986   15.5556 C.3     1  UNL1        0.1150
     22 C          64.1248   84.3390   13.6335 C.3     1  UNL1        0.1150
@<TRIPOS>BOND
     1    10    11    1
     2    11    12   ar
     3    12    13   ar
     4    13    14   ar
     5    14    15   ar
     6    15     1    1
     7     1     2   ar
     8     2     3   ar
     9     3     4   ar
    10     4     5   ar
    11     5     6   ar
    12     6     7   ar
    13     7    17    1
    14    17    18    1
    15    18    19    2
    16    18    20   am
    17    20    21    1
    18    20    22    1
    19     7     8   ar
    20     8     9   ar
    21    15    16   ar
    22    16    11   ar
    23     9     1   ar
    24     8     4   ar
@<TRIPOS>MOLECULE
*****
 22 24 0 0 0
SMALL
GASTEIGER

@<TRIPOS>ATOM
      1 C          62.6178   89.8582   11.4190 C.ar    1  UNL1        0.0206
      2 C          61.4681   90.6789   10.9144 C.ar    1  UNL1        0.0989
      3 N          60.4386   90.0566   10.0184 N.ar    1  UNL1       -0.2423
      4 C          60.5589   88.6136    9.6268 C.ar    1  UNL1        0.0985
      5 C          59.7044   87.7331    8.7638 C.ar    1  UNL1        0.0392
      6 C          60.3260   86.3683    8.7350 C.ar    1  UNL1        0.0779
      7 N          61.5647   86.4053    9.5802 N.ar    1  UNL1       -0.3165
      8 C          61.7086   87.7929   10.1313 C.ar    1  UNL1        0.0782
      9 C          62.7381   88.4152   11.0274 C.ar    1  UNL1        0.0203
     10 C          66.1304   93.5762   12.3343 C.3     1  UNL1        0.0310
     11 C          65.4035   92.3395   12.7727 C.ar    1  UNL1       -0.0218
     12 C          65.7062   91.7251   14.1073 C.ar    1  UNL1       -0.0043
     13 C          64.9794   90.4883   14.5457 C.ar    1  UNL1       -0.0003
     14 C          63.9499   89.8660   13.6496 C.ar    1  UNL1        0.0000
     15 C          63.6473   90.4805   12.3151 C.ar    1  UNL1        0.0012
     16 C          64.3741   91.7172   11.8767 C.ar    1  UNL1       -0.0042
     17 C          62.4960   85.2563    9.8303 C.3     1  UNL1        0.1920
     18 C          62.6812   84.7304   11.2229 C.2     1  UNL1        0.2488
     19 O          61.9731   85.3847   12.3720 O.2     1  UNL1       -0.2728
     20 N          63.5745   83.5503   11.4663 N.am    1  UNL1       -0.2744
     21 C          63.7597   83.0244   12.8588 C.3     1  UNL1        0.1150
     22 C          64.2825   82.8959   10.3172 C.3     1  UNL1        0.1150
@<TRIPOS>BOND
     1    10    11    1
     2    11    12   ar
     3    12    13   ar
     4    13    14   ar
     5    14    15   ar
     6    15     1    1
     7     1     2   ar
     8     2     3   ar
     9     3     4   ar
    10     4     5   ar
    11     5     6   ar
    12     6     7   ar
    13     7    17    1
    14    17    18    1
    15    18    19    2
    16    18    20   am
    17    20    21    1
    18    20    22    1
    19     7     8   ar
    20     8     9   ar
    21    15    16   ar
    22    16    11   ar
    23     9     1   ar
    24     8     4   ar
@<TRIPOS>MOLECULE
*****
 22 24 0 0 0
SMALL
GASTEIGER

@<TRIPOS>ATOM
      1 C          62.0732   85.9999   10.6906 C.ar    1  UNL1        0.0206
      2 C          60.9601   86.0421    9.6860 C.ar    1  UNL1        0.0989
      3 N          60.2600   87.3367    9.3963 N.ar    1  UNL1       -0.2423
      4 C          60.6730   88.5890   10.1113 C.ar    1  UNL1        0.0985
      5 C          60.1713   90.0006   10.0344 C.ar    1  UNL1        0.0392
      6 C          60.9743   90.8307   10.9914 C.ar    1  UNL1        0.0779
      7 N          61.9723   89.9322   11.6599 N.ar    1  UNL1       -0.3165
      8 C          61.7860   88.5468   11.1159 C.ar    1  UNL1        0.0782
      9 C          62.4861   87.2522   11.4056 C.ar    1  UNL1        0.0203
     10 C          63.2921   82.1862   14.0027 C.3     1  UNL1        0.0310
     11 C          63.3828   82.7985   12.6364 C.ar    1  UNL1       -0.0218
     12 C          64.1736   82.1162   11.5597 C.ar    1  UNL1       -0.0043
     13 C          64.2642   82.7284   10.1934 C.ar    1  UNL1       -0.0003
     14 C          63.5641   84.0230    9.9037 C.ar    1  UNL1        0.0000
     15 C          62.7733   84.7053   10.9803 C.ar    1  UNL1        0.0012
     16 C          62.6827   84.0930   12.3466 C.ar    1  UNL1       -0.0042
     17 C          62.9796   90.3464   12.6912 C.3     1  UNL1        0.1920
     18 C          64.1050   91.2638   12.3144 C.2     1  UNL1        0.2488
     19 O          64.2267   91.7618   10.9048 O.2     1  UNL1       -0.2728
     20 N          65.1086   91.6832   13.3473 N.am    1  UNL1       -0.2744
     21 C          66.2339   92.6006   12.9705 C.3     1  UNL1        0.1150
     22 C          64.9870   91.1852   14.7569 C.3     1  UNL1        0.1150
@<TRIPOS>BOND
     1    10    11    1
     2    11    12   ar
     3    12    13   ar
     4    13    14   ar
     5    14    15   ar
     6    15     1    1
     7     1     2   ar
     8     2     3   ar
     9     3     4   ar
    10     4     5   ar
    11     5     6   ar
    12     6     7   ar
    13     7    17    1
    14    17    18    1
    15    18    19    2
    16    18    20   am
    17    20    21    1
    18    20    22    1
    19     7     8   ar
    20     8     9   ar
    21    15    16   ar
    22    16    11   ar
    23     9     1   ar
    24     8     4   ar
@<TRIPOS>MOLECULE
*****
 22 24 0 0 0
SMALL
GASTEIGER

@<TRIPOS>ATOM
      1 C          63.4556   85.4640   13.1008 C.ar    1  UNL1        0.0206
      2 C          64.0295   85.7923   14.4471 C.ar    1  UNL1        0.0989
      3 N          64.2528   87.2230   14.8386 N.ar    1  UNL1       -0.2423
      4 C          63.9022   88.3253   13.8836 C.ar    1  UNL1        0.0985
      5 C          64.0097   89.8177   13.9903 C.ar    1  UNL1        0.0392
      6 C          63.5022   90.4117   12.7099 C.ar    1  UNL1        0.0779
      7 N          63.0811   89.2864   11.8118 N.ar    1  UNL1       -0.3165
      8 C          63.3283   87.9970   12.5372 C.ar    1  UNL1        0.0782
      9 C          63.1050   86.5663   12.1458 C.ar    1  UNL1        0.0203
     10 C          61.3492   80.8120   14.0613 C.3     1  UNL1        0.0310
     11 C          62.1790   81.7073   13.1896 C.ar    1  UNL1       -0.0218
     12 C          62.7855   81.1719   11.9264 C.ar    1  UNL1       -0.0043
     13 C          63.6153   82.0672   11.0546 C.ar    1  UNL1       -0.0003
     14 C          63.8386   83.4979   11.4461 C.ar    1  UNL1        0.0000
     15 C          63.2322   84.0333   12.7093 C.ar    1  UNL1        0.0012
     16 C          62.4024   83.1380   13.5810 C.ar    1  UNL1       -0.0042
     17 C          62.5125   89.4261   10.4308 C.3     1  UNL1        0.1920
     18 C          61.1246   88.9381   10.1383 C.2     1  UNL1        0.2488
     19 O          59.9380   89.7372   10.5893 O.2     1  UNL1       -0.2728
     20 N          60.9232   87.6511    9.3946 N.am    1  UNL1       -0.2744
     21 C          59.5353   87.1632    9.1021 C.3     1  UNL1        0.1150
     22 C          62.1097   86.8519    8.9435 C.3     1  UNL1        0.1150
@<TRIPOS>BOND
     1    10    11    1
     2    11    12   ar
     3    12    13   ar
     4    13    14   ar
     5    14    15   ar
     6    15     1    1
     7     1     2   ar
     8     2     3   ar
     9     3     4   ar
    10     4     5   ar
    11     5     6   ar
    12     6     7   ar
    13     7    17    1
    14    17    18    1
    15    18    19    2
    16    18    20   am
    17    20    21    1
    18    20    22    1
    19     7     8   ar
    20     8     9   ar
    21    15    16   ar
    22    16    11   ar
    23     9     1   ar
    24     8     4   ar
@<TRIPOS>MOLECULE
*****
 22 24 0 0 0
SMALL
GASTEIGER

@<TRIPOS>ATOM
      1 C          62.4699   85.8615   11.7727 C.ar    1  UNL1        0.0206
      2 C          61.4877   85.7327   10.6463 C.ar    1  UNL1        0.0989
      3 N          61.0381   86.9537    9.9001 N.ar    1  UNL1       -0.2423
      4 C          61.5706   88.3035   10.2801 C.ar    1  UNL1        0.0985
      5 C          61.3126   89.6753    9.7309 C.ar    1  UNL1        0.0392
      6 C          62.1353   90.6519   10.5178 C.ar    1  UNL1        0.0779
      7 N          62.9018   89.8837   11.5534 N.ar    1  UNL1       -0.3165
      8 C          62.5528   88.4323   11.4065 C.ar    1  UNL1        0.0782
      9 C          63.0024   87.2113   12.1527 C.ar    1  UNL1        0.0203
     10 C          62.7261   80.6894   12.2010 C.3     1  UNL1        0.0310
     11 C          63.0476   82.0544   12.7332 C.ar    1  UNL1       -0.0218
     12 C          63.8189   82.1985   14.0117 C.ar    1  UNL1       -0.0043
     13 C          64.1404   83.5635   14.5438 C.ar    1  UNL1       -0.0003
     14 C          63.6908   84.7846   13.7975 C.ar    1  UNL1        0.0000
     15 C          62.9196   84.6405   12.5191 C.ar    1  UNL1        0.0012
     16 C          62.5980   83.2754   11.9869 C.ar    1  UNL1       -0.0042
     17 C          63.8507   90.4648   12.5593 C.3     1  UNL1        0.1920
     18 C          63.4802   90.4903   14.0126 C.2     1  UNL1        0.2488
     19 O          62.2197   89.8228   14.4770 O.2     1  UNL1       -0.2728
     20 N          64.3701   91.1832   15.0015 N.am    1  UNL1       -0.2744
     21 C          63.9995   91.2086   16.4548 C.3     1  UNL1        0.1150
     22 C          65.6305   91.8507   14.5372 C.3     1  UNL1        0.1150
@<TRIPOS>BOND
     1    10    11    1
     2    11    12   ar
     3    12    13   ar
     4    13    14   ar
     5    14    15   ar
     6    15     1    1
     7     1     2   ar
     8     2     3   ar
     9     3     4   ar
    10     4     5   ar
    11     5     6   ar
    12     6     7   ar
    13     7    17    1
    14    17    18    1
    15    18    19    2
    16    18    20   am
    17    20    21    1
    18    20    22    1
    19     7     8   ar
    20     8     9   ar
    21    15    16   ar
    22    16    11   ar
    23     9     1   ar
    24     8     4   ar
@<TRIPOS>MOLECULE
*****
 22 24 0 0 0
SMALL
GASTEIGER

@<TRIPOS>ATOM
      1 C          63.4197   85.8347   13.4492 C.ar    1  UNL1        0.0206
      2 C          64.0196   86.3206   14.7352 C.ar    1  UNL1        0.0989
      3 N          64.2918   87.7827   14.9306 N.ar    1  UNL1       -0.2423
      4 C          63.9640   88.7589   13.8399 C.ar    1  UNL1        0.0985
      5 C          64.1188   90.2479   13.7457 C.ar    1  UNL1        0.0392
      6 C          63.6146   90.6823   12.4015 C.ar    1  UNL1        0.0779
      7 N          63.1480   89.4617   11.6649 N.ar    1  UNL1       -0.3165
      8 C          63.3640   88.2730   12.5539 C.ar    1  UNL1        0.0782
      9 C          63.0918   86.8109   12.3585 C.ar    1  UNL1        0.0203
     10 C          63.5129   81.6037   10.4343 C.3     1  UNL1        0.0310
     11 C          63.1941   82.2571   11.7463 C.ar    1  UNL1       -0.0218
     12 C          62.6031   81.4483   12.8629 C.ar    1  UNL1       -0.0043
     13 C          62.2843   82.1018   14.1750 C.ar    1  UNL1       -0.0003
     14 C          62.5565   83.5639   14.3704 C.ar    1  UNL1        0.0000
     15 C          63.1475   84.3726   13.2538 C.ar    1  UNL1        0.0012
     16 C          63.4663   83.7191   11.9418 C.ar    1  UNL1       -0.0042
     17 C          62.5675   89.4346   10.2821 C.3     1  UNL1        0.1920
     18 C          61.1645   88.9495   10.0670 C.2     1  UNL1        0.2488
     19 O          60.0041   89.7873   10.5162 O.2     1  UNL1       -0.2728
     20 N          60.9218   87.6266    9.4029 N.am    1  UNL1       -0.2744
     21 C          59.5187   87.1415    9.1879 C.3     1  UNL1        0.1150
     22 C          62.0820   86.7888    8.9538 C.3     1  UNL1        0.1150
@<TRIPOS>BOND
     1    10    11    1
     2    11    12   ar
     3    12    13   ar
     4    13    14   ar
     5    14    15   ar
     6    15     1    1
     7     1     2   ar
     8     2     3   ar
     9     3     4   ar
    10     4     5   ar
    11     5     6   ar
    12     6     7   ar
    13     7    17    1
    14    17    18    1
    15    18    19    2
    16    18    20   am
    17    20    21    1
    18    20    22    1
    19     7     8   ar
    20     8     9   ar
    21    15    16   ar
    22    16    11   ar
    23     9     1   ar
    24     8     4   ar
