@<TRIPOS>MOLECULE
*****
 27 31 0 0 0
SMALL
GASTEIGER

@<TRIPOS>ATOM
      1 C          61.2113   88.3047   10.3606 C.3     1  UNL1        0.0233
      2 C          62.0786   87.6451   11.3915 C.3     1  UNL1        0.0951
      3 C          62.0188   86.1585   11.5819 C.3     1  UNL1        0.1106
      4 N          62.8861   85.4988   12.6127 N.pl3   1  UNL1       -0.3024
      5 C          63.8133   86.3258   13.4532 C.3     1  UNL1        0.1124
      6 C          63.8731   87.8125   13.2628 C.3     1  UNL1        0.1148
      7 N          63.0058   88.4722   12.2320 N.am    1  UNL1       -0.2777
      8 C          63.0657   89.9588   12.0416 C.2     1  UNL1        0.2247
      9 O          62.1984   90.6184   11.0107 O.2     1  UNL1       -0.2749
     10 C          63.9929   90.7859   12.8821 C.3     1  UNL1        0.0690
     11 C          64.8038   91.8785   12.2508 C.3     1  UNL1        0.0086
     12 C          65.7310   92.7055   13.0913 C.3     1  UNL1        0.0005
     13 C          65.8471   92.4399   14.5630 C.3     1  UNL1        0.0000
     14 C          65.0362   91.3472   15.1942 C.3     1  UNL1        0.0005
     15 C          64.2865   91.3599   11.9932 C.3     1  UNL1        0.0000
     16 C          64.6876   92.1441   10.7791 C.3     1  UNL1        0.0005
     17 C          65.6148   92.9711   11.6196 C.3     1  UNL1        0.0000
     18 C          63.8767   91.0515   11.4103 C.3     1  UNL1        0.0086
     19 C          64.1091   90.5202   14.3538 C.3     1  UNL1        0.0086
     20 C          62.8263   84.0122   12.8031 C.ar    1  UNL1        0.0758
     21 C          63.0406   83.0971   11.6340 C.ar    1  UNL1        0.0184
     22 C          62.9808   81.6104   11.8245 C.ar    1  UNL1        0.0220
     23 C          62.7065   81.0388   13.1839 C.ar    1  UNL1        0.0997
     24 N          62.4922   81.9539   14.3529 N.ar    1  UNL1       -0.2323
     25 C          62.5520   83.4405   14.1626 C.ar    1  UNL1        0.1623
     26 C          62.3377   84.3556   15.3316 C.1     1  UNL1        0.1210
     27 N          62.1233   85.2707   16.5007 N.1     1  UNL1       -0.1892
@<TRIPOS>BOND
     1     2     1    1
     2     2     3    1
     3     3     4    1
     4     4    20    1
     5    20    21   ar
     6    21    22   ar
     7    22    23   ar
     8    23    24   ar
     9    24    25   ar
    10    25    26    1
    11    26    27    3
    12     4     5    1
    13     5     6    1
    14     6     7    1
    15     7     8   am
    16     8     9    2
    17     8    10    1
    18    10    11    1
    19    11    12    1
    20    12    13    1
    21    13    14    1
    22    14    15    1
    23    15    16    1
    24    16    17    1
    25    16    18    1
    26    14    19    1
    27     7     2    1
    28    18    10    1
    29    25    20   ar
    30    19    10    1
    31    17    12    1
@<TRIPOS>MOLECULE
*****
 27 31 0 0 0
SMALL
GASTEIGER

@<TRIPOS>ATOM
      1 C          64.5341   91.0287   14.0949 C.3     1  UNL1        0.0233
      2 C          64.1197   90.9785   12.6541 C.3     1  UNL1        0.0951
      3 C          63.1823   89.9076   12.1803 C.3     1  UNL1        0.1106
      4 N          62.7679   89.8574   10.7395 N.pl3   1  UNL1       -0.3024
      5 C          63.2909   90.8780    9.7727 C.3     1  UNL1        0.1124
      6 C          64.2283   91.9489   10.2465 C.3     1  UNL1        0.1148
      7 N          64.6427   91.9991   11.6873 N.am    1  UNL1       -0.2777
      8 C          65.5800   93.0700   12.1611 C.2     1  UNL1        0.2247
      9 O          65.9944   93.1203   13.6019 O.2     1  UNL1       -0.2749
     10 C          66.1030   94.0907   11.1943 C.3     1  UNL1        0.0690
     11 C          67.1906   93.7216   10.2294 C.3     1  UNL1        0.0086
     12 C          67.7136   94.7423    9.2626 C.3     1  UNL1        0.0005
     13 C          67.1489   96.1319    9.2606 C.3     1  UNL1        0.0000
     14 C          66.0614   96.5010   10.2255 C.3     1  UNL1        0.0005
     15 C          66.8013   93.3473   10.7873 C.3     1  UNL1        0.0000
     16 C          67.7552   92.3319   10.2314 C.3     1  UNL1        0.0005
     17 C          68.2782   93.3526    9.2646 C.3     1  UNL1        0.0000
     18 C          66.6677   92.7010   11.1962 C.3     1  UNL1        0.0086
     19 C          65.5384   95.4803   11.1923 C.3     1  UNL1        0.0086
     20 C          61.8306   88.7865   10.2656 C.ar    1  UNL1        0.0758
     21 C          62.3760   87.5114    9.6942 C.ar    1  UNL1        0.0184
     22 C          61.4385   86.4405    9.2203 C.ar    1  UNL1        0.0220
     23 C          59.9558   86.6448    9.3179 C.ar    1  UNL1        0.0997
     24 N          59.4103   87.9199    9.8893 N.ar    1  UNL1       -0.2323
     25 C          60.3477   88.9908   10.3632 C.ar    1  UNL1        0.1623
     26 C          59.8022   90.2659   10.9346 C.1     1  UNL1        0.1210
     27 N          59.2568   91.5411   11.5061 N.1     1  UNL1       -0.1892
@<TRIPOS>BOND
     1     2     1    1
     2     2     3    1
     3     3     4    1
     4     4    20    1
     5    20    21   ar
     6    21    22   ar
     7    22    23   ar
     8    23    24   ar
     9    24    25   ar
    10    25    26    1
    11    26    27    3
    12     4     5    1
    13     5     6    1
    14     6     7    1
    15     7     8   am
    16     8     9    2
    17     8    10    1
    18    10    11    1
    19    11    12    1
    20    12    13    1
    21    13    14    1
    22    14    15    1
    23    15    16    1
    24    16    17    1
    25    16    18    1
    26    14    19    1
    27     7     2    1
    28    18    10    1
    29    25    20   ar
    30    19    10    1
    31    17    12    1
@<TRIPOS>MOLECULE
*****
 27 31 0 0 0
SMALL
GASTEIGER

@<TRIPOS>ATOM
      1 C          61.6466   88.2210   10.3505 C.3     1  UNL1        0.0233
      2 C          62.5519   88.1416   11.5438 C.3     1  UNL1        0.0951
      3 C          63.1428   89.3934   12.1216 C.3     1  UNL1        0.1106
      4 N          64.0481   89.3140   13.3150 N.pl3   1  UNL1       -0.3024
      5 C          64.3626   87.9828   13.9305 C.3     1  UNL1        0.1124
      6 C          63.7718   86.7309   13.3527 C.3     1  UNL1        0.1148
      7 N          62.8664   86.8103   12.1593 N.am    1  UNL1       -0.2777
      8 C          62.2756   85.5585   11.5815 C.2     1  UNL1        0.2247
      9 O          61.3703   85.6380   10.3882 O.2     1  UNL1       -0.2749
     10 C          62.5901   84.2272   12.1971 C.3     1  UNL1        0.0690
     11 C          63.3120   83.1832   11.3979 C.3     1  UNL1        0.0086
     12 C          63.6264   81.8520   12.0134 C.3     1  UNL1        0.0005
     13 C          63.2190   81.5648   13.4282 C.3     1  UNL1        0.0000
     14 C          62.4972   82.6089   14.2274 C.3     1  UNL1        0.0005
     15 C          63.0674   83.9074   11.2613 C.3     1  UNL1        0.0000
     16 C          63.7194   83.4703    9.9831 C.3     1  UNL1        0.0005
     17 C          64.0339   82.1391   10.5987 C.3     1  UNL1        0.0000
     18 C          62.9975   84.5144   10.7823 C.3     1  UNL1        0.0086
     19 C          62.1827   83.9401   13.6118 C.3     1  UNL1        0.0086
     20 C          64.6389   90.5658   13.8928 C.ar    1  UNL1        0.0758
     21 C          65.4492   91.4826   13.0251 C.ar    1  UNL1        0.0184
     22 C          66.0400   92.7344   13.6030 C.ar    1  UNL1        0.0220
     23 C          65.8205   93.0694   15.0485 C.ar    1  UNL1        0.0997
     24 N          65.0102   92.1527   15.9162 N.ar    1  UNL1       -0.2323
     25 C          64.4194   90.9009   15.3384 C.ar    1  UNL1        0.1623
     26 C          63.6091   89.9841   16.2061 C.1     1  UNL1        0.1210
     27 N          62.7988   89.0673   17.0738 N.1     1  UNL1       -0.1892
@<TRIPOS>BOND
     1     2     1    1
     2     2     3    1
     3     3     4    1
     4     4    20    1
     5    20    21   ar
     6    21    22   ar
     7    22    23   ar
     8    23    24   ar
     9    24    25   ar
    10    25    26    1
    11    26    27    3
    12     4     5    1
    13     5     6    1
    14     6     7    1
    15     7     8   am
    16     8     9    2
    17     8    10    1
    18    10    11    1
    19    11    12    1
    20    12    13    1
    21    13    14    1
    22    14    15    1
    23    15    16    1
    24    16    17    1
    25    16    18    1
    26    14    19    1
    27     7     2    1
    28    18    10    1
    29    25    20   ar
    30    19    10    1
    31    17    12    1
@<TRIPOS>MOLECULE
*****
 27 31 0 0 0
SMALL
GASTEIGER

@<TRIPOS>ATOM
      1 C          63.5910   86.1787   13.6898 C.3     1  UNL1        0.0233
      2 C          63.5080   87.5101   13.0038 C.3     1  UNL1        0.0951
      3 C          64.2440   88.6903   13.5653 C.3     1  UNL1        0.1106
      4 N          64.1611   90.0216   12.8793 N.pl3   1  UNL1       -0.3024
      5 C          63.3421   90.1728   11.6317 C.3     1  UNL1        0.1124
      6 C          62.6061   88.9925   11.0701 C.3     1  UNL1        0.1148
      7 N          62.6890   87.6612   11.7562 N.am    1  UNL1       -0.2777
      8 C          61.9530   86.4809   11.1946 C.2     1  UNL1        0.2247
      9 O          62.0360   85.1496   11.8807 O.2     1  UNL1       -0.2749
     10 C          61.1340   86.6320    9.9470 C.3     1  UNL1        0.0690
     11 C          61.5516   85.9342    8.6866 C.3     1  UNL1        0.0086
     12 C          60.7327   86.0853    7.4391 C.3     1  UNL1        0.0005
     13 C          59.4961   86.9343    7.4519 C.3     1  UNL1        0.0000
     14 C          59.0785   87.6321    8.7123 C.3     1  UNL1        0.0005
     15 C          61.8332   85.9783    9.4089 C.3     1  UNL1        0.0000
     16 C          62.7882   85.0853    8.6738 C.3     1  UNL1        0.0005
     17 C          61.9692   85.2364    7.4263 C.3     1  UNL1        0.0000
     18 C          62.3706   85.7831    9.9342 C.3     1  UNL1        0.0086
     19 C          59.8975   87.4810    9.9598 C.3     1  UNL1        0.0086
     20 C          64.8970   91.2018   13.4408 C.ar    1  UNL1        0.0758
     21 C          65.7720   92.0332   12.5502 C.ar    1  UNL1        0.0184
     22 C          66.5081   93.2134   13.1118 C.ar    1  UNL1        0.0220
     23 C          66.3691   93.5623   14.5640 C.ar    1  UNL1        0.0997
     24 N          65.4941   92.7310   15.4546 N.ar    1  UNL1       -0.2323
     25 C          64.7581   91.5508   14.8931 C.ar    1  UNL1        0.1623
     26 C          63.8831   90.7195   15.7838 C.1     1  UNL1        0.1210
     27 N          63.0081   89.8881   16.6744 N.1     1  UNL1       -0.1892
@<TRIPOS>BOND
     1     2     1    1
     2     2     3    1
     3     3     4    1
     4     4    20    1
     5    20    21   ar
     6    21    22   ar
     7    22    23   ar
     8    23    24   ar
     9    24    25   ar
    10    25    26    1
    11    26    27    3
    12     4     5    1
    13     5     6    1
    14     6     7    1
    15     7     8   am
    16     8     9    2
    17     8    10    1
    18    10    11    1
    19    11    12    1
    20    12    13    1
    21    13    14    1
    22    14    15    1
    23    15    16    1
    24    16    17    1
    25    16    18    1
    26    14    19    1
    27     7     2    1
    28    18    10    1
    29    25    20   ar
    30    19    10    1
    31    17    12    1
@<TRIPOS>MOLECULE
*****
 27 31 0 0 0
SMALL
GASTEIGER

@<TRIPOS>ATOM
      1 C          61.5091   88.8142   10.2911 C.3     1  UNL1        0.0233
      2 C          62.2805   88.1165   11.3719 C.3     1  UNL1        0.0951
      3 C          62.1285   86.6370   11.5661 C.3     1  UNL1        0.1106
      4 N          62.8999   85.9393   12.6470 N.pl3   1  UNL1       -0.3024
      5 C          63.8233   86.7211   13.5336 C.3     1  UNL1        0.1124
      6 C          63.9752   88.2008   13.3394 C.3     1  UNL1        0.1148
      7 N          63.2039   88.8985   12.2585 N.am    1  UNL1       -0.2777
      8 C          63.3558   90.3780   12.0643 C.2     1  UNL1        0.2247
      9 O          62.5844   91.0757   10.9835 O.2     1  UNL1       -0.2749
     10 C          64.2792   91.1600   12.9509 C.3     1  UNL1        0.0690
     11 C          65.1670   92.2166   12.3633 C.3     1  UNL1        0.0086
     12 C          66.0903   92.9984   13.2500 C.3     1  UNL1        0.0005
     13 C          66.1258   92.7237   14.7242 C.3     1  UNL1        0.0000
     14 C          65.2379   91.6672   15.3118 C.3     1  UNL1        0.0005
     15 C          64.6394   91.7226   12.0795 C.3     1  UNL1        0.0000
     16 C          65.1316   92.4913   10.8891 C.3     1  UNL1        0.0005
     17 C          66.0549   93.2731   11.7757 C.3     1  UNL1        0.0000
     18 C          64.2437   91.4347   11.4767 C.3     1  UNL1        0.0086
     19 C          64.3146   90.8853   14.4251 C.3     1  UNL1        0.0086
     20 C          62.7480   84.4597   12.8412 C.ar    1  UNL1        0.0758
     21 C          62.4550   83.9085   14.2051 C.ar    1  UNL1        0.0184
     22 C          62.3031   82.4288   14.3993 C.ar    1  UNL1        0.0220
     23 C          62.4441   81.5005   13.2296 C.ar    1  UNL1        0.0997
     24 N          62.7371   82.0517   11.8657 N.ar    1  UNL1       -0.2323
     25 C          62.8890   83.5313   11.6715 C.ar    1  UNL1        0.1623
     26 C          63.1820   84.0825   10.3075 C.1     1  UNL1        0.1210
     27 N          63.4750   84.6337    8.9436 N.1     1  UNL1       -0.1892
@<TRIPOS>BOND
     1     2     1    1
     2     2     3    1
     3     3     4    1
     4     4    20    1
     5    20    21   ar
     6    21    22   ar
     7    22    23   ar
     8    23    24   ar
     9    24    25   ar
    10    25    26    1
    11    26    27    3
    12     4     5    1
    13     5     6    1
    14     6     7    1
    15     7     8   am
    16     8     9    2
    17     8    10    1
    18    10    11    1
    19    11    12    1
    20    12    13    1
    21    13    14    1
    22    14    15    1
    23    15    16    1
    24    16    17    1
    25    16    18    1
    26    14    19    1
    27     7     2    1
    28    18    10    1
    29    25    20   ar
    30    19    10    1
    31    17    12    1
@<TRIPOS>MOLECULE
*****
 27 31 0 0 0
SMALL
GASTEIGER

@<TRIPOS>ATOM
      1 C          61.9803   88.5164   10.7217 C.3     1  UNL1        0.0233
      2 C          62.7154   87.8094   11.8216 C.3     1  UNL1        0.0951
      3 C          62.6076   86.3196   11.9589 C.3     1  UNL1        0.1106
      4 N          63.3428   85.6126   13.0587 N.pl3   1  UNL1       -0.3024
      5 C          64.1858   86.3954   14.0213 C.3     1  UNL1        0.1124
      6 C          64.2937   87.8853   13.8840 C.3     1  UNL1        0.1148
      7 N          63.5585   88.5923   12.7841 N.am    1  UNL1       -0.2777
      8 C          63.6663   90.0820   12.6468 C.2     1  UNL1        0.2247
      9 O          62.9311   90.7890   11.5470 O.2     1  UNL1       -0.2749
     10 C          64.5093   90.8649   13.6094 C.3     1  UNL1        0.0690
     11 C          64.1213   90.9407   15.0563 C.3     1  UNL1        0.0086
     12 C          64.9644   91.7236   16.0188 C.3     1  UNL1        0.0005
     13 C          66.1954   92.4306   15.5344 C.3     1  UNL1        0.0000
     14 C          66.5834   92.3548   14.0874 C.3     1  UNL1        0.0005
     15 C          63.8250   90.5981   14.4257 C.3     1  UNL1        0.0000
     16 C          62.8903   90.2337   15.5408 C.3     1  UNL1        0.0005
     17 C          63.7334   91.0165   16.5033 C.3     1  UNL1        0.0000
     18 C          63.2783   90.1579   14.0939 C.3     1  UNL1        0.0086
     19 C          65.7404   91.5720   13.1250 C.3     1  UNL1        0.0086
     20 C          63.2350   84.1229   13.1960 C.ar    1  UNL1        0.0758
     21 C          63.5899   83.2355   12.0400 C.ar    1  UNL1        0.0184
     22 C          63.4821   81.7456   12.1773 C.ar    1  UNL1        0.0220
     23 C          63.0193   81.1432   13.4707 C.ar    1  UNL1        0.0997
     24 N          62.6643   82.0306   14.6268 N.ar    1  UNL1       -0.2323
     25 C          62.7722   83.5204   14.4895 C.ar    1  UNL1        0.1623
     26 C          62.4172   84.4078   15.6456 C.1     1  UNL1        0.1210
     27 N          62.0622   85.2952   16.8017 N.1     1  UNL1       -0.1892
@<TRIPOS>BOND
     1     2     1    1
     2     2     3    1
     3     3     4    1
     4     4    20    1
     5    20    21   ar
     6    21    22   ar
     7    22    23   ar
     8    23    24   ar
     9    24    25   ar
    10    25    26    1
    11    26    27    3
    12     4     5    1
    13     5     6    1
    14     6     7    1
    15     7     8   am
    16     8     9    2
    17     8    10    1
    18    10    11    1
    19    11    12    1
    20    12    13    1
    21    13    14    1
    22    14    15    1
    23    15    16    1
    24    16    17    1
    25    16    18    1
    26    14    19    1
    27     7     2    1
    28    18    10    1
    29    25    20   ar
    30    19    10    1
    31    17    12    1
@<TRIPOS>MOLECULE
*****
 27 31 0 0 0
SMALL
GASTEIGER

@<TRIPOS>ATOM
      1 C          63.8163   86.8369   13.9657 C.3     1  UNL1        0.0233
      2 C          63.8684   88.2276   13.4060 C.3     1  UNL1        0.0951
      3 C          64.7397   89.2638   14.0519 C.3     1  UNL1        0.1106
      4 N          64.7918   90.6545   13.4922 N.pl3   1  UNL1       -0.3024
      5 C          63.9727   91.0090   12.2867 C.3     1  UNL1        0.1124
      6 C          63.1014   89.9727   11.6408 C.3     1  UNL1        0.1148
      7 N          63.0493   88.5820   12.2004 N.am    1  UNL1       -0.2777
      8 C          62.1780   87.5458   11.5546 C.2     1  UNL1        0.2247
      9 O          62.1259   86.1551   12.1143 O.2     1  UNL1       -0.2749
     10 C          61.3588   87.9003   10.3490 C.3     1  UNL1        0.0690
     11 C          61.2873   86.9551    9.1865 C.3     1  UNL1        0.0086
     12 C          60.4682   87.3096    7.9810 C.3     1  UNL1        0.0005
     13 C          59.7205   88.6093    7.9380 C.3     1  UNL1        0.0000
     14 C          59.7920   89.5544    9.1005 C.3     1  UNL1        0.0005
     15 C          61.6446   86.9515    9.8758 C.3     1  UNL1        0.0000
     16 C          62.0350   85.6555    9.2294 C.3     1  UNL1        0.0005
     17 C          61.2159   86.0100    8.0240 C.3     1  UNL1        0.0000
     18 C          62.1065   86.6006   10.3920 C.3     1  UNL1        0.0086
     19 C          60.6111   89.1999   10.3060 C.3     1  UNL1        0.0086
     20 C          65.6631   91.6907   14.1380 C.ar    1  UNL1        0.0758
     21 C          65.7154   91.8005   15.6331 C.ar    1  UNL1        0.0184
     22 C          66.5867   92.8368   16.2789 C.ar    1  UNL1        0.0220
     23 C          67.4056   93.7631   15.4297 C.ar    1  UNL1        0.0997
     24 N          67.3533   93.6533   13.9346 N.ar    1  UNL1       -0.2323
     25 C          66.4820   92.6171   13.2888 C.ar    1  UNL1        0.1623
     26 C          66.4297   92.5073   11.7937 C.1     1  UNL1        0.1210
     27 N          66.3773   92.3974   10.2987 N.1     1  UNL1       -0.1892
@<TRIPOS>BOND
     1     2     1    1
     2     2     3    1
     3     3     4    1
     4     4    20    1
     5    20    21   ar
     6    21    22   ar
     7    22    23   ar
     8    23    24   ar
     9    24    25   ar
    10    25    26    1
    11    26    27    3
    12     4     5    1
    13     5     6    1
    14     6     7    1
    15     7     8   am
    16     8     9    2
    17     8    10    1
    18    10    11    1
    19    11    12    1
    20    12    13    1
    21    13    14    1
    22    14    15    1
    23    15    16    1
    24    16    17    1
    25    16    18    1
    26    14    19    1
    27     7     2    1
    28    18    10    1
    29    25    20   ar
    30    19    10    1
    31    17    12    1
@<TRIPOS>MOLECULE
*****
 27 31 0 0 0
SMALL
GASTEIGER

@<TRIPOS>ATOM
      1 C          64.2492   86.4283   16.0639 C.3     1  UNL1        0.0233
      2 C          63.6967   85.8785   14.7824 C.3     1  UNL1        0.0951
      3 C          63.4014   84.4129   14.6607 C.3     1  UNL1        0.1106
      4 N          62.8489   83.8630   13.3791 N.pl3   1  UNL1       -0.3024
      5 C          62.5917   84.7787   12.2193 C.3     1  UNL1        0.1124
      6 C          62.8870   86.2444   12.3410 C.3     1  UNL1        0.1148
      7 N          63.4394   86.7943   13.6225 N.am    1  UNL1       -0.2777
      8 C          63.7347   88.2598   13.7442 C.2     1  UNL1        0.2247
      9 O          64.2872   88.8097   15.0258 O.2     1  UNL1       -0.2749
     10 C          63.4775   89.1756   12.5844 C.3     1  UNL1        0.0690
     11 C          64.0715   90.5529   12.5701 C.3     1  UNL1        0.0086
     12 C          63.8143   91.4686   11.4102 C.3     1  UNL1        0.0005
     13 C          62.9630   91.0070   10.2647 C.3     1  UNL1        0.0000
     14 C          62.3689   89.6298   10.2790 C.3     1  UNL1        0.0005
     15 C          64.0884   89.9528   13.0625 C.3     1  UNL1        0.0000
     16 C          64.9229   91.0144   13.7156 C.3     1  UNL1        0.0005
     17 C          64.6656   91.9301   12.5558 C.3     1  UNL1        0.0000
     18 C          64.3288   89.6372   13.7299 C.3     1  UNL1        0.0086
     19 C          62.6261   88.7141   11.4388 C.3     1  UNL1        0.0086
     20 C          62.5537   82.3974   13.2574 C.ar    1  UNL1        0.0758
     21 C          61.6892   81.7192   14.2784 C.ar    1  UNL1        0.0184
     22 C          61.3939   80.2535   14.1567 C.ar    1  UNL1        0.0220
     23 C          61.9632   79.4662   13.0139 C.ar    1  UNL1        0.0997
     24 N          62.8277   80.1445   11.9928 N.ar    1  UNL1       -0.2323
     25 C          63.1230   81.6100   12.1145 C.ar    1  UNL1        0.1623
     26 C          63.9875   82.2883   11.0935 C.1     1  UNL1        0.1210
     27 N          64.8520   82.9666   10.0724 N.1     1  UNL1       -0.1892
@<TRIPOS>BOND
     1     2     1    1
     2     2     3    1
     3     3     4    1
     4     4    20    1
     5    20    21   ar
     6    21    22   ar
     7    22    23   ar
     8    23    24   ar
     9    24    25   ar
    10    25    26    1
    11    26    27    3
    12     4     5    1
    13     5     6    1
    14     6     7    1
    15     7     8   am
    16     8     9    2
    17     8    10    1
    18    10    11    1
    19    11    12    1
    20    12    13    1
    21    13    14    1
    22    14    15    1
    23    15    16    1
    24    16    17    1
    25    16    18    1
    26    14    19    1
    27     7     2    1
    28    18    10    1
    29    25    20   ar
    30    19    10    1
    31    17    12    1
@<TRIPOS>MOLECULE
*****
 27 31 0 0 0
SMALL
GASTEIGER

@<TRIPOS>ATOM
      1 C          61.5253   88.3936   10.4973 C.3     1  UNL1        0.0233
      2 C          62.5001   88.3264   11.6355 C.3     1  UNL1        0.0951
      3 C          63.1403   89.5816   12.1497 C.3     1  UNL1        0.1106
      4 N          64.1150   89.5144   13.2879 N.pl3   1  UNL1       -0.3024
      5 C          64.4496   88.1920   13.9117 C.3     1  UNL1        0.1124
      6 C          63.8093   86.9367   13.3975 C.3     1  UNL1        0.1148
      7 N          62.8346   87.0039   12.2593 N.am    1  UNL1       -0.2777
      8 C          62.1944   85.7487   11.7451 C.2     1  UNL1        0.2247
      9 O          61.2196   85.8159   10.6069 O.2     1  UNL1       -0.2749
     10 C          62.5289   84.4262   12.3689 C.3     1  UNL1        0.0690
     11 C          63.2512   83.3817   11.5707 C.3     1  UNL1        0.0086
     12 C          63.5857   82.0592   12.1946 C.3     1  UNL1        0.0005
     13 C          63.1979   81.7813   13.6167 C.3     1  UNL1        0.0000
     14 C          62.4755   82.8258   14.4149 C.3     1  UNL1        0.0005
     15 C          62.9981   84.1022   11.4305 C.3     1  UNL1        0.0000
     16 C          63.6390   83.6596   10.1486 C.3     1  UNL1        0.0005
     17 C          63.9735   82.3371   10.7725 C.3     1  UNL1        0.0000
     18 C          62.9167   84.7041   10.9468 C.3     1  UNL1        0.0086
     19 C          62.1411   84.1482   13.7910 C.3     1  UNL1        0.0086
     20 C          64.7553   90.7696   13.8021 C.ar    1  UNL1        0.0758
     21 C          65.1996   90.8533   15.2324 C.ar    1  UNL1        0.0184
     22 C          65.8398   92.1086   15.7466 C.ar    1  UNL1        0.0220
     23 C          66.0357   93.2801   14.8306 C.ar    1  UNL1        0.0997
     24 N          65.5914   93.1965   13.4004 N.ar    1  UNL1       -0.2323
     25 C          64.9512   91.9412   12.8861 C.ar    1  UNL1        0.1623
     26 C          64.5069   91.8576   11.4559 C.1     1  UNL1        0.1210
     27 N          64.0626   91.7739   10.0256 N.1     1  UNL1       -0.1892
@<TRIPOS>BOND
     1     2     1    1
     2     2     3    1
     3     3     4    1
     4     4    20    1
     5    20    21   ar
     6    21    22   ar
     7    22    23   ar
     8    23    24   ar
     9    24    25   ar
    10    25    26    1
    11    26    27    3
    12     4     5    1
    13     5     6    1
    14     6     7    1
    15     7     8   am
    16     8     9    2
    17     8    10    1
    18    10    11    1
    19    11    12    1
    20    12    13    1
    21    13    14    1
    22    14    15    1
    23    15    16    1
    24    16    17    1
    25    16    18    1
    26    14    19    1
    27     7     2    1
    28    18    10    1
    29    25    20   ar
    30    19    10    1
    31    17    12    1
