@<TRIPOS>MOLECULE
*****
 32 35 0 0 0
SMALL
GASTEIGER

@<TRIPOS>ATOM
      1 C          65.4937   92.0976   13.4491 C.3     1  UNL1        0.1338
      2 C          65.8765   92.7271   14.7556 C.2     1  UNL1        0.0733
      3 C          64.9912   92.1550   15.8228 C.2     1  UNL1        0.1887
      4 O          65.0292   92.5046   17.2810 O.2     1  UNL1       -0.5020
      5 C          64.0612   91.1719   15.1758 C.2     1  UNL1        0.2869
      6 O          63.0059   90.3658   15.8733 O.2     1  UNL1       -0.2662
      7 N          64.3717   91.1364   13.7087 N.am    1  UNL1       -0.2463
      8 H          65.6480   93.1337   17.5960 H       1  UNL1        0.2924
      9 C          67.5352   91.9532   11.8486 C.ar    1  UNL1        0.1366
     10 C          68.1639   92.2353   10.5163 C.ar    1  UNL1        0.0366
     11 C          67.3798   92.9440    9.4520 C.ar    1  UNL1        0.0031
     12 C          65.9669   93.3706    9.7201 C.ar    1  UNL1       -0.0001
     13 C          65.3382   93.0885   11.0524 C.ar    1  UNL1        0.0007
     14 C          66.1224   92.3798   12.1167 C.ar    1  UNL1        0.0344
     15 C          69.6868   91.7336   13.2883 C.3     1  UNL1        0.2525
     16 O          68.3194   91.2444   12.9130 O.3     1  UNL1       -0.4717
     17 C          63.6815   90.2887   12.6817 C.ar    1  UNL1        0.0548
     18 C          63.5957   88.8031   12.8702 C.ar    1  UNL1        0.0149
     19 C          62.9055   87.9553   11.8432 C.ar    1  UNL1        0.0013
     20 C          62.3011   88.5931   10.6275 C.ar    1  UNL1        0.0006
     21 C          62.3869   90.0788   10.4388 C.ar    1  UNL1        0.0013
     22 C          63.0772   90.9265   11.4660 C.ar    1  UNL1        0.0149
     23 C          61.6109   87.7453    9.6004 C.ar    1  UNL1        0.0070
     24 C          62.1407   86.4740    9.0062 C.ar    1  UNL1        0.0075
     25 C          61.1270   85.9630    8.0258 C.ar    1  UNL1        0.0355
     26 S          59.9707   86.9185    8.0140 S.2     1  UNL1       -0.0859
     27 C          60.2699   88.0200    8.9873 C.ar    1  UNL1        0.0354
     28 C          66.9552   93.7493   14.9593 C.2     1  UNL1        0.1736
     29 O          67.1522   95.0071   14.5102 O.2     1  UNL1       -0.2915
     30 C          68.1333   93.4328   15.8322 C.3     1  UNL1        0.0618
     31 C          68.2856   92.0604   16.4180 C.3     1  UNL1        0.0081
     32 C          69.1591   94.4889   16.1193 C.3     1  UNL1        0.0081
@<TRIPOS>BOND
     1    15    16    1
     2    16     9    1
     3     9    10   ar
     4    10    11   ar
     5    11    12   ar
     6    12    13   ar
     7    13    14   ar
     8    14     1    1
     9     1     2    1
    10     2    28    1
    11    28    29    2
    12    28    30    1
    13    30    31    1
    14    30    32    1
    15     2     3    2
    16     3     4    1
    17     3     5    1
    18     5     6    2
    19     5     7   am
    20     7    17    1
    21    17    18   ar
    22    18    19   ar
    23    19    20   ar
    24    20    23    1
    25    23    24   ar
    26    24    25   ar
    27    25    26   ar
    28    26    27   ar
    29    20    21   ar
    30    21    22   ar
    31    14     9   ar
    32     7     1    1
    33    22    17   ar
    34    27    23   ar
    35     4     8    1
@<TRIPOS>MOLECULE
*****
 32 35 0 0 0
SMALL
GASTEIGER

@<TRIPOS>ATOM
      1 C          65.8764   92.2945   13.3859 C.3     1  UNL1        0.1338
      2 C          66.3074   92.8992   14.6892 C.2     1  UNL1        0.0733
      3 C          65.3835   92.3996   15.7600 C.2     1  UNL1        0.1887
      4 O          65.4499   92.7516   17.2166 O.2     1  UNL1       -0.5020
      5 C          64.3814   91.4861   15.1185 C.2     1  UNL1        0.2869
      6 O          63.2698   90.7643   15.8210 O.2     1  UNL1       -0.2662
      7 N          64.6861   91.4212   13.6513 N.am    1  UNL1       -0.2463
      8 H          66.1146   93.3340   17.5280 H       1  UNL1        0.2924
      9 C          66.3715   93.8466   11.3620 C.ar    1  UNL1        0.1366
     10 C          67.0174   94.0752   10.0277 C.ar    1  UNL1        0.0366
     11 C          67.8141   92.9801    9.3828 C.ar    1  UNL1        0.0031
     12 C          67.9650   91.6565   10.0722 C.ar    1  UNL1       -0.0001
     13 C          67.3191   91.4280   11.4066 C.ar    1  UNL1        0.0007
     14 C          66.5224   92.5230   12.0515 C.ar    1  UNL1        0.0344
     15 C          65.8613   96.3753   11.6713 C.3     1  UNL1        0.2525
     16 O          65.5747   94.9417   12.0070 O.3     1  UNL1       -0.4717
     17 C          63.9327   90.6231   12.6288 C.ar    1  UNL1        0.0548
     18 C          63.5961   89.1863   12.8980 C.ar    1  UNL1        0.0149
     19 C          62.8427   88.3882   11.8756 C.ar    1  UNL1        0.0013
     20 C          62.4258   89.0268   10.5839 C.ar    1  UNL1        0.0006
     21 C          62.7624   90.4637   10.3146 C.ar    1  UNL1        0.0013
     22 C          63.5158   91.2617   11.3372 C.ar    1  UNL1        0.0149
     23 C          61.6724   88.2287    9.5615 C.ar    1  UNL1        0.0070
     24 C          62.0347   86.8583    9.0709 C.ar    1  UNL1        0.0075
     25 C          61.0107   86.4434    8.0564 C.ar    1  UNL1        0.0355
     26 S          60.0155   87.5575    7.9199 S.2     1  UNL1       -0.0859
     27 C          60.4246   88.6609    8.8502 C.ar    1  UNL1        0.0354
     28 C          67.4600   93.8385   14.8870 C.2     1  UNL1        0.1736
     29 O          67.7411   95.0838   14.4476 O.2     1  UNL1       -0.2915
     30 C          68.6243   93.4283   15.7390 C.3     1  UNL1        0.0618
     31 C          68.7439   92.0103   16.2134 C.3     1  UNL1        0.0081
     32 C          69.6693   94.4361   16.1166 C.3     1  UNL1        0.0081
@<TRIPOS>BOND
     1    15    16    1
     2    16     9    1
     3     9    10   ar
     4    10    11   ar
     5    11    12   ar
     6    12    13   ar
     7    13    14   ar
     8    14     1    1
     9     1     2    1
    10     2    28    1
    11    28    29    2
    12    28    30    1
    13    30    31    1
    14    30    32    1
    15     2     3    2
    16     3     4    1
    17     3     5    1
    18     5     6    2
    19     5     7   am
    20     7    17    1
    21    17    18   ar
    22    18    19   ar
    23    19    20   ar
    24    20    23    1
    25    23    24   ar
    26    24    25   ar
    27    25    26   ar
    28    26    27   ar
    29    20    21   ar
    30    21    22   ar
    31    14     9   ar
    32     7     1    1
    33    22    17   ar
    34    27    23   ar
    35     4     8    1
@<TRIPOS>MOLECULE
*****
 32 35 0 0 0
SMALL
GASTEIGER

@<TRIPOS>ATOM
      1 C          64.9917   91.2462   13.6500 C.3     1  UNL1        0.1338
      2 C          65.9850   92.3008   14.0389 C.2     1  UNL1        0.0733
      3 C          66.1668   93.2206   12.8681 C.2     1  UNL1        0.1887
      4 O          67.0708   94.4166   12.8185 O.2     1  UNL1       -0.5020
      5 C          65.2860   92.7345   11.7555 C.2     1  UNL1        0.2869
      6 O          65.1545   93.3590   10.3980 O.2     1  UNL1       -0.2662
      7 N          64.5597   91.5142   12.2388 N.am    1  UNL1       -0.2463
      8 H          67.5869   94.6451   13.5665 H       1  UNL1        0.2924
      9 C          63.6559   90.4097   15.7154 C.ar    1  UNL1        0.1366
     10 C          63.1785   89.2846   16.5850 C.ar    1  UNL1        0.0366
     11 C          63.5594   87.8709   16.2588 C.ar    1  UNL1        0.0031
     12 C          64.4177   87.5823   15.0630 C.ar    1  UNL1       -0.0001
     13 C          64.8952   88.7074   14.1934 C.ar    1  UNL1        0.0007
     14 C          64.5143   90.1211   14.5196 C.ar    1  UNL1        0.0344
     15 C          63.8230   92.4828   17.2725 C.3     1  UNL1        0.2525
     16 O          63.2751   91.8234   16.0416 O.3     1  UNL1       -0.4717
     17 C          63.5745   90.7042   11.4494 C.ar    1  UNL1        0.0548
     18 C          63.1835   89.3341   11.9181 C.ar    1  UNL1        0.0149
     19 C          62.1982   88.5241   11.1287 C.ar    1  UNL1        0.0013
     20 C          61.6039   89.0843    9.8705 C.ar    1  UNL1        0.0006
     21 C          61.9949   90.4545    9.4017 C.ar    1  UNL1        0.0013
     22 C          62.9801   91.2644   10.1912 C.ar    1  UNL1        0.0149
     23 C          60.6186   88.2743    9.0812 C.ar    1  UNL1        0.0070
     24 C          60.4098   86.7926    9.1868 C.ar    1  UNL1        0.0075
     25 C          59.3314   86.4063    8.2185 C.ar    1  UNL1        0.0355
     26 S          58.8736   87.6492    7.5144 S.2     1  UNL1       -0.0859
     27 C          59.6692   88.8036    8.0476 C.ar    1  UNL1        0.0354
     28 C          66.6752   92.4155   15.3657 C.2     1  UNL1        0.1736
     29 O          66.2685   92.7514   16.6085 O.2     1  UNL1       -0.2915
     30 C          68.1415   92.1195   15.4765 C.3     1  UNL1        0.0618
     31 C          68.7928   92.0502   16.8259 C.3     1  UNL1        0.0081
     32 C          68.9565   91.8928   14.2378 C.3     1  UNL1        0.0081
@<TRIPOS>BOND
     1    15    16    1
     2    16     9    1
     3     9    10   ar
     4    10    11   ar
     5    11    12   ar
     6    12    13   ar
     7    13    14   ar
     8    14     1    1
     9     1     2    1
    10     2    28    1
    11    28    29    2
    12    28    30    1
    13    30    31    1
    14    30    32    1
    15     2     3    2
    16     3     4    1
    17     3     5    1
    18     5     6    2
    19     5     7   am
    20     7    17    1
    21    17    18   ar
    22    18    19   ar
    23    19    20   ar
    24    20    23    1
    25    23    24   ar
    26    24    25   ar
    27    25    26   ar
    28    26    27   ar
    29    20    21   ar
    30    21    22   ar
    31    14     9   ar
    32     7     1    1
    33    22    17   ar
    34    27    23   ar
    35     4     8    1
@<TRIPOS>MOLECULE
*****
 32 35 0 0 0
SMALL
GASTEIGER

@<TRIPOS>ATOM
      1 C          62.7056   87.5772   11.8865 C.3     1  UNL1        0.1338
      2 C          63.0999   88.8707   12.5356 C.2     1  UNL1        0.0733
      3 C          63.9873   88.5523   13.7022 C.2     1  UNL1        0.1887
      4 O          64.6110   89.5492   14.6334 O.2     1  UNL1       -0.5020
      5 C          64.1416   87.0620   13.7741 C.2     1  UNL1        0.2869
      6 O          64.9466   86.3069   14.7899 O.2     1  UNL1       -0.2662
      7 N          63.3494   86.4594   12.6519 N.am    1  UNL1       -0.2463
      8 H          64.4575   90.4653   14.5102 H       1  UNL1        0.2924
      9 C          60.3571   87.7309   10.7860 C.ar    1  UNL1        0.1366
     10 C          59.4741   87.5814    9.5827 C.ar    1  UNL1        0.0366
     11 C          60.0565   87.1288    8.2766 C.ar    1  UNL1        0.0031
     12 C          61.5219   86.8257    8.1738 C.ar    1  UNL1       -0.0001
     13 C          62.4050   86.9751    9.3770 C.ar    1  UNL1        0.0007
     14 C          61.8226   87.4277   10.6831 C.ar    1  UNL1        0.0344
     15 C          58.7640   89.2915   12.1188 C.3     1  UNL1        0.2525
     16 O          59.7747   88.1835   12.0921 O.3     1  UNL1       -0.4717
     17 C          63.2233   84.9958   12.3485 C.ar    1  UNL1        0.0548
     18 C          63.6559   84.4666   11.0133 C.ar    1  UNL1        0.0149
     19 C          63.5297   83.0031   10.7099 C.ar    1  UNL1        0.0013
     20 C          62.9709   82.0686   11.7417 C.ar    1  UNL1        0.0006
     21 C          62.5382   82.5978   13.0770 C.ar    1  UNL1        0.0013
     22 C          62.6645   84.0614   13.3803 C.ar    1  UNL1        0.0149
     23 C          62.8447   80.6051   11.4382 C.ar    1  UNL1        0.0070
     24 C          62.5627   79.5193   12.4340 C.ar    1  UNL1        0.0075
     25 C          62.5221   78.2136   11.6970 C.ar    1  UNL1        0.0355
     26 S          62.7790   78.4923   10.2456 S.2     1  UNL1       -0.0859
     27 C          62.9784   79.9704   10.0858 C.ar    1  UNL1        0.0354
     28 C          62.6803   90.2419   12.0954 C.2     1  UNL1        0.1736
     29 O          61.5039   90.9042   12.0838 O.2     1  UNL1       -0.2915
     30 C          63.6931   91.1885   11.5226 C.3     1  UNL1        0.0618
     31 C          64.7523   91.7784   12.4059 C.3     1  UNL1        0.0081
     32 C          63.6469   91.5452   10.0663 C.3     1  UNL1        0.0081
@<TRIPOS>BOND
     1    15    16    1
     2    16     9    1
     3     9    10   ar
     4    10    11   ar
     5    11    12   ar
     6    12    13   ar
     7    13    14   ar
     8    14     1    1
     9     1     2    1
    10     2    28    1
    11    28    29    2
    12    28    30    1
    13    30    31    1
    14    30    32    1
    15     2     3    2
    16     3     4    1
    17     3     5    1
    18     5     6    2
    19     5     7   am
    20     7    17    1
    21    17    18   ar
    22    18    19   ar
    23    19    20   ar
    24    20    23    1
    25    23    24   ar
    26    24    25   ar
    27    25    26   ar
    28    26    27   ar
    29    20    21   ar
    30    21    22   ar
    31    14     9   ar
    32     7     1    1
    33    22    17   ar
    34    27    23   ar
    35     4     8    1
@<TRIPOS>MOLECULE
*****
 32 35 0 0 0
SMALL
GASTEIGER

@<TRIPOS>ATOM
      1 C          62.8978   84.7678   12.8033 C.3     1  UNL1        0.1338
      2 C          62.5600   83.4732   13.4813 C.2     1  UNL1        0.0733
      3 C          62.7795   83.6504   14.9545 C.2     1  UNL1        0.1887
      4 O          62.5634   82.6067   16.0100 O.2     1  UNL1       -0.5020
      5 C          63.2530   85.0547   15.1871 C.2     1  UNL1        0.2869
      6 O          63.5936   85.6617   16.5158 O.2     1  UNL1       -0.2662
      7 N          63.3262   85.7452   13.8575 N.am    1  UNL1       -0.2463
      8 H          62.2642   81.7520   15.7694 H       1  UNL1        0.2924
      9 C          61.8013   85.9997   10.7957 C.ar    1  UNL1        0.1366
     10 C          61.7244   86.2697    9.3223 C.ar    1  UNL1        0.0366
     11 C          62.6669   85.5777    8.3828 C.ar    1  UNL1        0.0031
     12 C          63.6865   84.6157    8.9168 C.ar    1  UNL1       -0.0001
     13 C          63.7635   84.3458   10.3903 C.ar    1  UNL1        0.0007
     14 C          62.8209   85.0378   11.3297 C.ar    1  UNL1        0.0344
     15 C          60.0743   87.8822   11.2689 C.3     1  UNL1        0.2525
     16 O          60.8587   86.6917   11.7353 O.3     1  UNL1       -0.4717
     17 C          63.7527   87.1641   13.6233 C.ar    1  UNL1        0.0548
     18 C          63.3165   87.8831   12.3812 C.ar    1  UNL1        0.0149
     19 C          63.7431   89.3020   12.1470 C.ar    1  UNL1        0.0013
     20 C          64.6059   90.0019   13.1548 C.ar    1  UNL1        0.0006
     21 C          65.0422   89.2828   14.3970 C.ar    1  UNL1        0.0013
     22 C          64.6155   87.8640   14.6311 C.ar    1  UNL1        0.0149
     23 C          65.0325   91.4207   12.9206 C.ar    1  UNL1        0.0070
     24 C          64.7839   92.2222   11.6773 C.ar    1  UNL1        0.0075
     25 C          65.3803   93.5840   11.8768 C.ar    1  UNL1        0.0355
     26 S          65.9974   93.6242   13.2434 S.2     1  UNL1       -0.0859
     27 C          65.7824   92.2871   13.8884 C.ar    1  UNL1        0.0354
     28 C          62.0859   82.2211   12.8049 C.2     1  UNL1        0.1736
     29 O          61.8359   81.8857   11.5213 O.2     1  UNL1       -0.2915
     30 C          61.7866   80.9967   13.6179 C.3     1  UNL1        0.0618
     31 C          62.8714   80.0000   13.9001 C.3     1  UNL1        0.0081
     32 C          60.4022   80.7689   14.1489 C.3     1  UNL1        0.0081
@<TRIPOS>BOND
     1    15    16    1
     2    16     9    1
     3     9    10   ar
     4    10    11   ar
     5    11    12   ar
     6    12    13   ar
     7    13    14   ar
     8    14     1    1
     9     1     2    1
    10     2    28    1
    11    28    29    2
    12    28    30    1
    13    30    31    1
    14    30    32    1
    15     2     3    2
    16     3     4    1
    17     3     5    1
    18     5     6    2
    19     5     7   am
    20     7    17    1
    21    17    18   ar
    22    18    19   ar
    23    19    20   ar
    24    20    23    1
    25    23    24   ar
    26    24    25   ar
    27    25    26   ar
    28    26    27   ar
    29    20    21   ar
    30    21    22   ar
    31    14     9   ar
    32     7     1    1
    33    22    17   ar
    34    27    23   ar
    35     4     8    1
@<TRIPOS>MOLECULE
*****
 32 35 0 0 0
SMALL
GASTEIGER

@<TRIPOS>ATOM
      1 C          62.8269   84.9155   12.8895 C.3     1  UNL1        0.1338
      2 C          62.5202   83.6007   13.5431 C.2     1  UNL1        0.0733
      3 C          62.8722   83.7125   14.9969 C.2     1  UNL1        0.1887
      4 O          62.7257   82.6304   16.0253 O.2     1  UNL1       -0.5020
      5 C          63.3965   85.0965   15.2418 C.2     1  UNL1        0.2869
      6 O          63.8663   85.6413   16.5580 O.2     1  UNL1       -0.2662
      7 N          63.3685   85.8399   13.9393 N.am    1  UNL1       -0.2463
      8 H          62.3870   81.7924   15.7786 H       1  UNL1        0.2924
      9 C          63.4876   84.5992   10.3968 C.ar    1  UNL1        0.1366
     10 C          63.2879   84.9312    8.9477 C.ar    1  UNL1        0.0366
     11 C          62.2276   85.9117    8.5422 C.ar    1  UNL1        0.0031
     12 C          61.3671   86.5601    9.5858 C.ar    1  UNL1       -0.0001
     13 C          61.5669   86.2281   11.0349 C.ar    1  UNL1        0.0007
     14 C          62.6271   85.2476   11.4403 C.ar    1  UNL1        0.0344
     15 C          64.5265   82.2220   10.2555 C.3     1  UNL1        0.2525
     16 O          64.5479   83.6186   10.8023 O.3     1  UNL1       -0.4717
     17 C          63.8053   87.2587   13.7244 C.ar    1  UNL1        0.0548
     18 C          63.3596   88.0036   12.5012 C.ar    1  UNL1        0.0149
     19 C          63.7965   89.4224   12.2862 C.ar    1  UNL1        0.0013
     20 C          64.6791   90.0963   13.2946 C.ar    1  UNL1        0.0006
     21 C          65.1249   89.3514   14.5180 C.ar    1  UNL1        0.0013
     22 C          64.6880   87.9326   14.7328 C.ar    1  UNL1        0.0149
     23 C          65.1160   91.5151   13.0797 C.ar    1  UNL1        0.0070
     24 C          64.8808   92.3325   11.8442 C.ar    1  UNL1        0.0075
     25 C          65.4842   93.6881   12.0634 C.ar    1  UNL1        0.0355
     26 S          66.0923   93.7086   13.4345 S.2     1  UNL1       -0.0859
     27 C          65.8647   92.3655   14.0626 C.ar    1  UNL1        0.0354
     28 C          61.9599   82.3871   12.8625 C.2     1  UNL1        0.1736
     29 O          61.5394   82.1266   11.6063 O.2     1  UNL1       -0.2915
     30 C          61.7735   81.1139   13.6331 C.3     1  UNL1        0.0618
     31 C          60.4258   80.7657   14.1920 C.3     1  UNL1        0.0081
     32 C          62.9351   80.1886   13.8450 C.3     1  UNL1        0.0081
@<TRIPOS>BOND
     1    15    16    1
     2    16     9    1
     3     9    10   ar
     4    10    11   ar
     5    11    12   ar
     6    12    13   ar
     7    13    14   ar
     8    14     1    1
     9     1     2    1
    10     2    28    1
    11    28    29    2
    12    28    30    1
    13    30    31    1
    14    30    32    1
    15     2     3    2
    16     3     4    1
    17     3     5    1
    18     5     6    2
    19     5     7   am
    20     7    17    1
    21    17    18   ar
    22    18    19   ar
    23    19    20   ar
    24    20    23    1
    25    23    24   ar
    26    24    25   ar
    27    25    26   ar
    28    26    27   ar
    29    20    21   ar
    30    21    22   ar
    31    14     9   ar
    32     7     1    1
    33    22    17   ar
    34    27    23   ar
    35     4     8    1
@<TRIPOS>MOLECULE
*****
 32 35 0 0 0
SMALL
GASTEIGER

@<TRIPOS>ATOM
      1 C          62.0525   94.5625   -1.3209 C.3     1  UNL1        0.1338
      2 C          63.4852   94.1606   -1.5106 C.2     1  UNL1        0.0733
      3 C          63.6838   93.8224   -2.9584 C.2     1  UNL1        0.1887
      4 O          64.9671   93.3706   -3.5902 O.2     1  UNL1       -0.5020
      5 C          62.3739   94.0152   -3.6635 C.2     1  UNL1        0.2869
      6 O          62.1173   93.7901   -5.1241 O.2     1  UNL1       -0.2662
      7 N          61.3658   94.4727   -2.6514 N.am    1  UNL1       -0.2463
      8 H          65.7394   93.2781   -3.0678 H       1  UNL1        0.2924
      9 C          60.9697   93.9429    0.9581 C.ar    1  UNL1        0.1366
     10 C          60.3352   94.3612    2.2513 C.ar    1  UNL1        0.0366
     11 C          60.1490   95.8175    2.5588 C.ar    1  UNL1        0.0031
     12 C          60.5973   96.8554    1.5731 C.ar    1  UNL1       -0.0001
     13 C          61.2318   96.4372    0.2799 C.ar    1  UNL1        0.0007
     14 C          61.4180   94.9809   -0.0276 C.ar    1  UNL1        0.0344
     15 C          60.0979   91.7383   -0.1047 C.3     1  UNL1        0.2525
     16 O          61.1560   92.4866    0.6506 O.3     1  UNL1       -0.4717
     17 C          59.9240   94.7853   -2.9223 C.ar    1  UNL1        0.0548
     18 C          58.9348   93.6713   -3.0964 C.ar    1  UNL1        0.0149
     19 C          57.4930   93.9840   -3.3673 C.ar    1  UNL1        0.0013
     20 C          57.0403   95.4108   -3.4641 C.ar    1  UNL1        0.0006
     21 C          58.0295   96.5249   -3.2900 C.ar    1  UNL1        0.0013
     22 C          59.4713   96.2121   -3.0191 C.ar    1  UNL1        0.0149
     23 C          55.5985   95.7234   -3.7350 C.ar    1  UNL1        0.0070
     24 C          54.5268   95.9067   -2.7016 C.ar    1  UNL1        0.0075
     25 C          53.2412   96.2043   -3.4147 C.ar    1  UNL1        0.0355
     26 S          53.5183   96.2049   -4.8890 S.2     1  UNL1       -0.0859
     27 C          54.9752   95.9077   -5.0868 C.ar    1  UNL1        0.0354
     28 C          64.5349   94.1065   -0.4405 C.2     1  UNL1        0.1736
     29 O          65.2281   93.1059    0.1435 O.2     1  UNL1       -0.2915
     30 C          65.0104   95.3724    0.2084 C.3     1  UNL1        0.0618
     31 C          65.7381   96.4034   -0.6023 C.3     1  UNL1        0.0081
     32 C          64.7583   95.6074    1.6684 C.3     1  UNL1        0.0081
@<TRIPOS>BOND
     1    15    16    1
     2    16     9    1
     3     9    10   ar
     4    10    11   ar
     5    11    12   ar
     6    12    13   ar
     7    13    14   ar
     8    14     1    1
     9     1     2    1
    10     2    28    1
    11    28    29    2
    12    28    30    1
    13    30    31    1
    14    30    32    1
    15     2     3    2
    16     3     4    1
    17     3     5    1
    18     5     6    2
    19     5     7   am
    20     7    17    1
    21    17    18   ar
    22    18    19   ar
    23    19    20   ar
    24    20    23    1
    25    23    24   ar
    26    24    25   ar
    27    25    26   ar
    28    26    27   ar
    29    20    21   ar
    30    21    22   ar
    31    14     9   ar
    32     7     1    1
    33    22    17   ar
    34    27    23   ar
    35     4     8    1
