@<TRIPOS>MOLECULE
*****
 34 38 0 0 0
SMALL
GASTEIGER

@<TRIPOS>ATOM
      1 C          61.5827   92.4152    2.2549 C.2     1  UNL1       -0.0144
      2 C          60.1338   92.5639    2.6139 C.2     1  UNL1        0.0893
      3 C          59.3826   91.9355    3.7501 C.2     1  UNL1        0.3694
      4 N          57.9409   92.3495    3.7492 N.2     1  UNL1        0.1551
      5 O          57.0110   91.8312    4.8060 O.2     1  UNL1       -0.2751
      6 C          57.5230   90.8989    5.8637 C.3     1  UNL1        0.3195
      7 C          58.9648   90.4849    5.8645 C.3     1  UNL1        0.2321
      8 N          59.8946   91.0032    4.8076 N.pl3   1  UNL1       -0.1835
      9 C          61.2842   90.4690    4.9905 C.3     1  UNL1        0.2030
     10 C          62.5052   90.7352    4.1607 C.3     1  UNL1        0.0555
     11 C          62.6379   91.6014    2.9433 C.3     1  UNL1        0.0309
     12 C          59.4768   89.5525    6.9222 C.ar    1  UNL1        0.0285
     13 C          60.1075   90.1039    8.1665 C.ar    1  UNL1        0.0318
     14 C          60.6195   89.1716    9.2241 C.ar    1  UNL1        0.1695
     15 F          61.2502   89.7229   10.4685 F       1  UNL1       -0.2017
     16 C          60.5008   87.6880    9.0376 C.ar    1  UNL1        0.1946
     17 F          61.0127   86.7557   10.0952 F       1  UNL1       -0.1994
     18 C          59.8700   87.1367    7.7933 C.ar    1  UNL1        0.1695
     19 F          59.7512   85.6531    7.6066 F       1  UNL1       -0.2017
     20 C          59.3580   88.0690    6.7356 C.ar    1  UNL1        0.0318
     21 C          63.3678   95.1530    0.0036 C.ar    1  UNL1        0.1547
     22 C          62.9145   94.3865    1.2108 C.ar    1  UNL1        0.0381
     23 C          62.0360   93.1817    1.0478 C.ar    1  UNL1       -0.0006
     24 C          61.6107   92.7433   -0.3222 C.ar    1  UNL1        0.0014
     25 C          62.0639   93.5097   -1.5294 C.ar    1  UNL1        0.0206
     26 C          62.9425   94.7146   -1.3664 C.ar    1  UNL1        0.0994
     27 N          63.3958   95.4810   -2.5734 N.ar    1  UNL1       -0.2839
     28 C          62.5134   96.2475   -3.5138 C.ar    1  UNL1        0.1826
     29 N          63.3833   96.8557   -4.5736 N.ar    1  UNL1       -0.2280
     30 C          64.8032   96.4653   -4.2884 C.ar    1  UNL1        0.0786
     31 C          66.0045   96.8559   -5.0973 C.3     1  UNL1        0.0538
     32 C          64.8110   95.6157   -3.0522 C.ar    1  UNL1        0.0963
     33 C          64.9500   96.6023    1.4685 C.3     1  UNL1        0.2525
     34 O          64.2463   96.3578    0.1666 O.3     1  UNL1       -0.4700
@<TRIPOS>BOND
     1    33    34    1
     2    34    21    1
     3    21    22   ar
     4    22    23   ar
     5    23     1    1
     6     1     2    2
     7     2     3    1
     8     3     4    2
     9     4     5    1
    10     5     6    1
    11     6     7    1
    12     7    12    1
    13    12    13   ar
    14    13    14   ar
    15    14    15    1
    16    14    16   ar
    17    16    17    1
    18    16    18   ar
    19    18    19    1
    20    18    20   ar
    21     7     8    1
    22     8     9    1
    23     9    10    1
    24    10    11    1
    25    23    24   ar
    26    24    25   ar
    27    25    26   ar
    28    26    27    1
    29    27    28   ar
    30    28    29   ar
    31    29    30   ar
    32    30    31    1
    33    30    32   ar
    34    26    21   ar
    35    32    27   ar
    36    11     1    1
    37     8     3    1
    38    20    12   ar
@<TRIPOS>MOLECULE
*****
 34 38 0 0 0
SMALL
GASTEIGER

@<TRIPOS>ATOM
      1 C          62.0147   93.1068    1.4399 C.2     1  UNL1       -0.0144
      2 C          63.1437   94.0653    1.6782 C.2     1  UNL1        0.0893
      3 C          63.8437   94.9502    0.6896 C.2     1  UNL1        0.3694
      4 N          64.9239   95.7578    1.3459 N.2     1  UNL1        0.1551
      5 O          65.7481   96.7103    0.5313 O.2     1  UNL1       -0.2751
      6 C          65.4919   96.8552   -0.9396 C.3     1  UNL1        0.3195
      7 C          64.4116   96.0475   -1.5958 C.3     1  UNL1        0.2321
      8 N          63.5875   95.0950   -0.7812 N.pl3   1  UNL1       -0.1835
      9 C          62.5681   94.3908   -1.6268 C.3     1  UNL1        0.2030
     10 C          61.5532   93.3678   -1.2104 C.3     1  UNL1        0.0555
     11 C          61.3069   92.7964    0.1545 C.3     1  UNL1        0.0309
     12 C          64.1555   96.1924   -3.0667 C.ar    1  UNL1        0.0285
     13 C          62.7640   96.4509   -3.5637 C.ar    1  UNL1        0.0318
     14 C          62.5079   96.5958   -5.0346 C.ar    1  UNL1        0.1695
     15 F          61.1164   96.8544   -5.5317 F       1  UNL1       -0.2017
     16 C          63.6431   96.4821   -6.0084 C.ar    1  UNL1        0.1946
     17 F          63.3869   96.6270   -7.4792 F       1  UNL1       -0.1994
     18 C          65.0345   96.2235   -5.5113 C.ar    1  UNL1        0.1695
     19 F          66.1698   96.1098   -6.4851 F       1  UNL1       -0.2017
     20 C          65.2907   96.0787   -4.0404 C.ar    1  UNL1        0.0318
     21 C          59.7293   91.9724    4.4798 C.ar    1  UNL1        0.1547
     22 C          60.2145   92.7193    3.2727 C.ar    1  UNL1        0.0381
     23 C          61.5295   92.3600    2.6469 C.ar    1  UNL1       -0.0006
     24 C          62.3594   91.2539    3.2281 C.ar    1  UNL1        0.0014
     25 C          61.8743   90.5070    4.4351 C.ar    1  UNL1        0.0206
     26 C          60.5592   90.8663    5.0610 C.ar    1  UNL1        0.0994
     27 N          60.0741   90.1194    6.2679 N.ar    1  UNL1       -0.2839
     28 C          58.9670   89.1075    6.2925 C.ar    1  UNL1        0.1826
     29 N          58.8196   88.6161    7.7020 N.ar    1  UNL1       -0.2280
     30 C          59.8354   89.3242    8.5485 C.ar    1  UNL1        0.0786
     31 C          60.0400   89.1362   10.0226 C.3     1  UNL1        0.0538
     32 C          60.6108   90.2534    7.6622 C.ar    1  UNL1        0.0963
     33 C          57.1553   91.6602    4.6431 C.3     1  UNL1        0.2525
     34 O          58.4143   92.3317    5.1055 O.3     1  UNL1       -0.4700
@<TRIPOS>BOND
     1    33    34    1
     2    34    21    1
     3    21    22   ar
     4    22    23   ar
     5    23     1    1
     6     1     2    2
     7     2     3    1
     8     3     4    2
     9     4     5    1
    10     5     6    1
    11     6     7    1
    12     7    12    1
    13    12    13   ar
    14    13    14   ar
    15    14    15    1
    16    14    16   ar
    17    16    17    1
    18    16    18   ar
    19    18    19    1
    20    18    20   ar
    21     7     8    1
    22     8     9    1
    23     9    10    1
    24    10    11    1
    25    23    24   ar
    26    24    25   ar
    27    25    26   ar
    28    26    27    1
    29    27    28   ar
    30    28    29   ar
    31    29    30   ar
    32    30    31    1
    33    30    32   ar
    34    26    21   ar
    35    32    27   ar
    36    11     1    1
    37     8     3    1
    38    20    12   ar
@<TRIPOS>MOLECULE
*****
 34 38 0 0 0
SMALL
GASTEIGER

@<TRIPOS>ATOM
      1 C          60.8921   92.9048    2.0351 C.2     1  UNL1       -0.0144
      2 C          62.0378   93.8685    2.1282 C.2     1  UNL1        0.0893
      3 C          62.5563   94.8090    1.0809 C.2     1  UNL1        0.3694
      4 N          63.7249   95.6018    1.5866 N.2     1  UNL1        0.1551
      5 O          64.3945   96.6037    0.6932 O.2     1  UNL1       -0.2751
      6 C          63.8953   96.8127   -0.7058 C.3     1  UNL1        0.3195
      7 C          62.7267   96.0198   -1.2114 C.3     1  UNL1        0.2321
      8 N          62.0572   95.0179   -0.3180 N.pl3   1  UNL1       -0.1835
      9 C          60.9163   94.3381   -1.0153 C.3     1  UNL1        0.2030
     10 C          59.9927   93.2814   -0.4858 C.3     1  UNL1        0.0555
     11 C          59.9820   92.6435    0.8718 C.3     1  UNL1        0.0309
     12 C          62.2275   96.2288   -2.6104 C.ar    1  UNL1        0.0285
     13 C          63.1925   96.2287   -3.7588 C.ar    1  UNL1        0.0318
     14 C          62.6934   96.4377   -5.1578 C.ar    1  UNL1        0.1695
     15 F          63.6583   96.4377   -6.3063 F       1  UNL1       -0.2017
     16 C          61.2293   96.6468   -5.4085 C.ar    1  UNL1        0.1946
     17 F          60.7302   96.8558   -6.8074 F       1  UNL1       -0.1994
     18 C          60.2644   96.6469   -4.2600 C.ar    1  UNL1        0.1695
     19 F          58.8003   96.8559   -4.5105 F       1  UNL1       -0.2017
     20 C          60.7635   96.4379   -2.8610 C.ar    1  UNL1        0.0318
     21 C          58.9751   91.2723    5.1028 C.ar    1  UNL1        0.1547
     22 C          59.2464   92.0818    3.8693 C.ar    1  UNL1        0.0381
     23 C          60.6207   92.0954    3.2685 C.ar    1  UNL1       -0.0006
     24 C          61.7237   91.2995    3.9009 C.ar    1  UNL1        0.0014
     25 C          61.4525   90.4901    5.1343 C.ar    1  UNL1        0.0206
     26 C          60.0781   90.4765    5.7352 C.ar    1  UNL1        0.0994
     27 N          59.8069   89.6671    6.9686 N.ar    1  UNL1       -0.2839
     28 C          59.0013   88.4033    7.0343 C.ar    1  UNL1        0.1826
     29 N          58.9901   87.9345    8.4591 N.ar    1  UNL1       -0.2280
     30 C          59.7886   88.9084    9.2739 C.ar    1  UNL1        0.0786
     31 C          60.0385   88.8259   10.7507 C.3     1  UNL1        0.0538
     32 C          60.2935   89.9792    8.3527 C.ar    1  UNL1        0.0963
     33 C          56.3935   91.2290    4.8140 C.3     1  UNL1        0.2525
     34 O          57.6008   91.2587    5.7036 O.3     1  UNL1       -0.4700
@<TRIPOS>BOND
     1    33    34    1
     2    34    21    1
     3    21    22   ar
     4    22    23   ar
     5    23     1    1
     6     1     2    2
     7     2     3    1
     8     3     4    2
     9     4     5    1
    10     5     6    1
    11     6     7    1
    12     7    12    1
    13    12    13   ar
    14    13    14   ar
    15    14    15    1
    16    14    16   ar
    17    16    17    1
    18    16    18   ar
    19    18    19    1
    20    18    20   ar
    21     7     8    1
    22     8     9    1
    23     9    10    1
    24    10    11    1
    25    23    24   ar
    26    24    25   ar
    27    25    26   ar
    28    26    27    1
    29    27    28   ar
    30    28    29   ar
    31    29    30   ar
    32    30    31    1
    33    30    32   ar
    34    26    21   ar
    35    32    27   ar
    36    11     1    1
    37     8     3    1
    38    20    12   ar
@<TRIPOS>MOLECULE
*****
 34 38 0 0 0
SMALL
GASTEIGER

@<TRIPOS>ATOM
      1 C          63.3572   86.6174   13.4207 C.2     1  UNL1       -0.0144
      2 C          62.8525   87.3755   12.2287 C.2     1  UNL1        0.0893
      3 C          63.1383   88.7939   11.8329 C.2     1  UNL1        0.3694
      4 N          62.4297   89.1618   10.5631 N.2     1  UNL1        0.1551
      5 O          62.5821   90.5402    9.9914 O.2     1  UNL1       -0.2751
      6 C          63.4432   91.5507   10.6897 C.3     1  UNL1        0.3195
      7 C          64.1519   91.1828   11.9595 C.3     1  UNL1        0.2321
      8 N          63.9994   89.8043   12.5311 N.pl3   1  UNL1       -0.1835
      9 C          64.7874   89.6460   13.7976 C.3     1  UNL1        0.2030
     10 C          64.9088   88.4382   14.6787 C.3     1  UNL1        0.0555
     11 C          64.2723   87.0903   14.5109 C.3     1  UNL1        0.0309
     12 C          65.0130   92.1932   12.6577 C.ar    1  UNL1        0.0285
     13 C          65.5203   93.3906   11.9102 C.ar    1  UNL1        0.0318
     14 C          66.3814   94.4011   12.6084 C.ar    1  UNL1        0.1695
     15 F          66.8888   95.5986   11.8609 F       1  UNL1       -0.2017
     16 C          66.7352   94.2142   14.0540 C.ar    1  UNL1        0.1946
     17 F          67.5962   95.2246   14.7522 F       1  UNL1       -0.1994
     18 C          66.2278   93.0167   14.8015 C.ar    1  UNL1        0.1695
     19 F          66.5815   92.8297   16.2472 F       1  UNL1       -0.2017
     20 C          65.3667   92.0062   14.1033 C.ar    1  UNL1        0.0318
     21 C          62.4905   82.8629   12.4703 C.ar    1  UNL1        0.1547
     22 C          62.9636   84.2816   12.3533 C.ar    1  UNL1        0.0381
     23 C          62.8841   85.1988   13.5376 C.ar    1  UNL1       -0.0006
     24 C          62.3316   84.6973   14.8388 C.ar    1  UNL1        0.0014
     25 C          61.8585   83.2787   14.9558 C.ar    1  UNL1        0.0206
     26 C          61.9380   82.3615   13.7715 C.ar    1  UNL1        0.0994
     27 N          61.4649   80.9429   13.8885 N.ar    1  UNL1       -0.2839
     28 C          62.3054   79.7148   13.7001 C.ar    1  UNL1        0.1826
     29 N          61.4282   78.5162   13.9096 N.ar    1  UNL1       -0.2280
     30 C          60.0457   79.0035   14.2274 C.ar    1  UNL1        0.0786
     31 C          58.8502   78.1421   14.5088 C.3     1  UNL1        0.0538
     32 C          60.0683   80.5033   14.2144 C.ar    1  UNL1        0.0963
     33 C          63.8310   81.8731   10.4770 C.3     1  UNL1        0.2525
     34 O          62.5700   81.9458   11.2860 O.3     1  UNL1       -0.4700
@<TRIPOS>BOND
     1    33    34    1
     2    34    21    1
     3    21    22   ar
     4    22    23   ar
     5    23     1    1
     6     1     2    2
     7     2     3    1
     8     3     4    2
     9     4     5    1
    10     5     6    1
    11     6     7    1
    12     7    12    1
    13    12    13   ar
    14    13    14   ar
    15    14    15    1
    16    14    16   ar
    17    16    17    1
    18    16    18   ar
    19    18    19    1
    20    18    20   ar
    21     7     8    1
    22     8     9    1
    23     9    10    1
    24    10    11    1
    25    23    24   ar
    26    24    25   ar
    27    25    26   ar
    28    26    27    1
    29    27    28   ar
    30    28    29   ar
    31    29    30   ar
    32    30    31    1
    33    30    32   ar
    34    26    21   ar
    35    32    27   ar
    36    11     1    1
    37     8     3    1
    38    20    12   ar
