@<TRIPOS>MOLECULE
*****
 36 39 0 0 0
SMALL
GASTEIGER

@<TRIPOS>ATOM
      1 C          60.9338   94.9036   -2.6854 C.ar    1  UNL1       -0.0036
      2 C          60.3613   95.5732   -3.8994 C.ar    1  UNL1       -0.0030
      3 C          58.8744   95.6828   -4.0645 C.ar    1  UNL1       -0.0042
      4 C          57.9601   95.1229   -3.0155 C.ar    1  UNL1       -0.0173
      5 C          58.5325   94.4534   -1.8014 C.ar    1  UNL1       -0.0042
      6 C          60.0193   94.3437   -1.6363 C.ar    1  UNL1       -0.0027
      7 C          60.5918   93.6742   -0.4223 C.ar    1  UNL1       -0.0003
      8 C          60.5710   94.3778    0.9023 C.ar    1  UNL1       -0.0001
      9 C          61.1435   93.7083    2.1163 C.ar    1  UNL1        0.0039
     10 C          61.7368   92.3351    2.0059 C.ar    1  UNL1        0.0714
     11 C          61.7576   91.6313    0.6813 C.ar    1  UNL1        0.0039
     12 C          61.1851   92.3009   -0.5327 C.ar    1  UNL1       -0.0001
     13 C          62.3093   91.6655    3.2200 C.3     1  UNL1        0.4186
     14 F          62.8817   90.9959    4.4340 F       1  UNL1       -0.1659
     15 F          61.0423   91.9463    3.9722 F       1  UNL1       -0.1659
     16 F          63.5762   91.3847    2.4677 F       1  UNL1       -0.1659
     17 C          56.4731   95.2326   -3.1805 C.3     1  UNL1        0.0588
     18 C          55.8927   95.6254   -4.5067 C.3     1  UNL1        0.0106
     19 C          55.5668   94.9495   -2.0194 C.2     1  UNL1        0.0540
     20 O          55.2307   93.5329   -1.6582 O.co2   1  UNL1       -0.5488
     21 O          54.9965   96.0829   -1.2194 O.co2   1  UNL1       -0.5488
     22 C          62.4206   94.7940   -2.5203 C.3     1  UNL1        0.1030
     23 C          64.9776   96.2851    2.6988 C.3     1  UNL1        0.0001
     24 C          64.3384   95.9123    1.3940 C.3     1  UNL1        0.0028
     25 C          63.3592   96.8450    0.7450 C.3     1  UNL1        0.0174
     26 C          62.7199   96.4723   -0.5598 C.3     1  UNL1        0.0726
     27 N          63.0598   95.1667   -1.2156 N.3     1  UNL1       -0.2669
     28 C          64.0391   94.2340   -0.5666 C.3     1  UNL1        0.0726
     29 C          64.6783   94.6068    0.7382 C.3     1  UNL1        0.0174
     30 C          63.2682   94.3115   -3.6600 C.ar    1  UNL1       -0.0035
     31 C          64.0334   95.2953   -4.4945 C.ar    1  UNL1       -0.0003
     32 C          64.8810   94.8129   -5.6341 C.ar    1  UNL1        0.0294
     33 C          64.9634   93.3466   -5.9393 C.ar    1  UNL1        0.1401
     34 F          65.8110   92.8641   -7.0789 F       1  UNL1       -0.2042
     35 C          64.1982   92.3627   -5.1047 C.ar    1  UNL1        0.0294
     36 C          63.3506   92.8452   -3.9651 C.ar    1  UNL1       -0.0003
@<TRIPOS>UNITY_ATOM_ATTR
20 1
charge -1
@<TRIPOS>BOND
     1    23    24    1
     2    24    25    1
     3    25    26    1
     4    26    27    1
     5    22    27    1
     6    22    30    1
     7    30    31   ar
     8    31    32   ar
     9    32    33   ar
    10    33    34    1
    11    33    35   ar
    12    35    36   ar
    13    22     1    1
    14     1     2   ar
    15     2     3   ar
    16     3     4   ar
    17     4    17    1
    18    17    18    1
    19    17    19    1
    20    19    20   ar
    21    19    21   ar
    22     4     5   ar
    23     5     6   ar
    24     6     7    1
    25     7     8   ar
    26     8     9   ar
    27     9    10   ar
    28    10    13    1
    29    13    14    1
    30    13    15    1
    31    13    16    1
    32    10    11   ar
    33    11    12   ar
    34    27    28    1
    35    28    29    1
    36    29    24    1
    37    36    30   ar
    38     6     1   ar
    39    12     7   ar
@<TRIPOS>MOLECULE
*****
 36 39 0 0 0
SMALL
GASTEIGER

@<TRIPOS>ATOM
      1 C          60.6401   94.8201   -2.4846 C.ar    1  UNL1       -0.0036
      2 C          60.0255   95.4498   -3.6994 C.ar    1  UNL1       -0.0030
      3 C          58.5385   95.4112   -3.8933 C.ar    1  UNL1       -0.0042
      4 C          57.6662   94.7427   -2.8724 C.ar    1  UNL1       -0.0173
      5 C          58.2808   94.1130   -1.6576 C.ar    1  UNL1       -0.0042
      6 C          59.7677   94.1516   -1.4637 C.ar    1  UNL1       -0.0027
      7 C          60.3823   93.5219   -0.2489 C.ar    1  UNL1       -0.0003
      8 C          61.3419   92.3791   -0.4008 C.ar    1  UNL1       -0.0001
      9 C          61.9565   91.7493    0.8140 C.ar    1  UNL1        0.0039
     10 C          61.6115   92.2624    2.1806 C.ar    1  UNL1        0.0714
     11 C          60.6518   93.4052    2.3325 C.ar    1  UNL1        0.0039
     12 C          60.0372   94.0350    1.1177 C.ar    1  UNL1       -0.0001
     13 C          62.2261   91.6326    3.3954 C.3     1  UNL1        0.4186
     14 F          62.8406   91.0028    4.6102 F       1  UNL1       -0.1659
     15 F          63.4504   91.2910    2.5989 F       1  UNL1       -0.1659
     16 F          61.0018   91.9742    4.1919 F       1  UNL1       -0.1659
     17 C          56.1793   94.7040   -3.0662 C.3     1  UNL1        0.0588
     18 C          55.3053   94.0524   -2.0359 C.3     1  UNL1        0.0106
     19 C          55.5663   95.3169   -4.2904 C.2     1  UNL1        0.0540
     20 O          55.2217   96.7767   -4.3060 O.co2   1  UNL1       -0.5488
     21 O          55.2980   94.4700   -5.4990 O.co2   1  UNL1       -0.5488
     22 C          62.1270   94.8587   -2.2908 C.3     1  UNL1        0.1030
     23 C          65.7762   93.1016   -6.7175 C.3     1  UNL1        0.0001
     24 C          64.8639   93.5409   -5.6108 C.3     1  UNL1        0.0028
     25 C          64.0805   92.5230   -4.8360 C.3     1  UNL1        0.0174
     26 C          63.1682   92.9623   -3.7293 C.3     1  UNL1        0.0726
     27 N          63.0392   94.4195   -3.3974 N.3     1  UNL1       -0.2669
     28 C          63.8226   95.4373   -4.1723 C.3     1  UNL1        0.0726
     29 C          64.7349   94.9980   -5.2789 C.3     1  UNL1        0.0174
     30 C          62.7016   95.3367   -0.9902 C.ar    1  UNL1       -0.0035
     31 C          61.9775   96.3765   -0.1874 C.ar    1  UNL1       -0.0003
     32 C          62.5521   96.8545    1.1131 C.ar    1  UNL1        0.0294
     33 C          63.8508   96.2926    1.6108 C.ar    1  UNL1        0.1401
     34 F          64.4254   96.7706    2.9114 F       1  UNL1       -0.2042
     35 C          64.5748   95.2528    0.8080 C.ar    1  UNL1        0.0294
     36 C          64.0002   94.7749   -0.4925 C.ar    1  UNL1       -0.0003
@<TRIPOS>UNITY_ATOM_ATTR
20 1
charge -1
@<TRIPOS>BOND
     1    23    24    1
     2    24    25    1
     3    25    26    1
     4    26    27    1
     5    22    27    1
     6    22    30    1
     7    30    31   ar
     8    31    32   ar
     9    32    33   ar
    10    33    34    1
    11    33    35   ar
    12    35    36   ar
    13    22     1    1
    14     1     2   ar
    15     2     3   ar
    16     3     4   ar
    17     4    17    1
    18    17    18    1
    19    17    19    1
    20    19    20   ar
    21    19    21   ar
    22     4     5   ar
    23     5     6   ar
    24     6     7    1
    25     7     8   ar
    26     8     9   ar
    27     9    10   ar
    28    10    13    1
    29    13    14    1
    30    13    15    1
    31    13    16    1
    32    10    11   ar
    33    11    12   ar
    34    27    28    1
    35    28    29    1
    36    29    24    1
    37    36    30   ar
    38     6     1   ar
    39    12     7   ar
@<TRIPOS>MOLECULE
*****
 36 39 0 0 0
SMALL
GASTEIGER

@<TRIPOS>ATOM
      1 C          63.3801   87.7830   13.1496 C.ar    1  UNL1       -0.0036
      2 C          64.2038   87.3130   14.3118 C.ar    1  UNL1       -0.0030
      3 C          64.4718   85.8488   14.4976 C.ar    1  UNL1       -0.0042
      4 C          63.9161   84.8548   13.5214 C.ar    1  UNL1       -0.0173
      5 C          63.0925   85.3249   12.3592 C.ar    1  UNL1       -0.0042
      6 C          62.8245   86.7889   12.1733 C.ar    1  UNL1       -0.0027
      7 C          62.0008   87.2590   11.0112 C.ar    1  UNL1       -0.0003
      8 C          62.6513   88.0042    9.8835 C.ar    1  UNL1       -0.0001
      9 C          61.8276   88.4742    8.7214 C.ar    1  UNL1        0.0039
     10 C          60.3535   88.1992    8.6868 C.ar    1  UNL1        0.0714
     11 C          59.7029   87.4540    9.8145 C.ar    1  UNL1        0.0039
     12 C          60.5266   86.9839   10.9767 C.ar    1  UNL1       -0.0001
     13 C          59.5298   88.6693    7.5247 C.3     1  UNL1        0.4186
     14 F          58.7062   89.1393    6.3625 F       1  UNL1       -0.1659
     15 F          58.9866   87.2822    7.3487 F       1  UNL1       -0.1659
     16 F          60.0731   90.0563    7.7007 F       1  UNL1       -0.1659
     17 C          64.1841   83.3906   13.7072 C.3     1  UNL1        0.0588
     18 C          64.4450   82.8442   15.0796 C.3     1  UNL1        0.0106
     19 C          64.1913   82.4729   12.5207 C.2     1  UNL1        0.0540
     20 O          64.9492   82.8528   11.2833 O.co2   1  UNL1       -0.5488
     21 O          63.4405   81.1754   12.5717 O.co2   1  UNL1       -0.5488
     22 C          63.1121   89.2471   12.9638 C.3     1  UNL1        0.1030
     23 C          67.4824   93.2432   13.9293 C.3     1  UNL1        0.0001
     24 C          66.3898   92.2441   13.6879 C.3     1  UNL1        0.0028
     25 C          66.0863   91.2002   14.7214 C.3     1  UNL1        0.0174
     26 C          64.9937   90.2012   14.4800 C.3     1  UNL1        0.0726
     27 N          64.2047   90.2461   13.2052 N.3     1  UNL1       -0.2669
     28 C          64.5082   91.2901   12.1716 C.3     1  UNL1        0.0726
     29 C          65.6007   92.2890   12.4130 C.3     1  UNL1        0.0174
     30 C          61.7516   89.7122   12.5365 C.ar    1  UNL1       -0.0035
     31 C          61.6067   90.6152   11.3476 C.ar    1  UNL1       -0.0003
     32 C          60.2462   91.0803   10.9203 C.ar    1  UNL1        0.0294
     33 C          59.0304   90.6424   11.6819 C.ar    1  UNL1        0.1401
     34 F          57.6699   91.1075   11.2546 F       1  UNL1       -0.2042
     35 C          59.1752   89.7394   12.8708 C.ar    1  UNL1        0.0294
     36 C          60.5358   89.2743   13.2981 C.ar    1  UNL1       -0.0003
@<TRIPOS>UNITY_ATOM_ATTR
20 1
charge -1
@<TRIPOS>BOND
     1    23    24    1
     2    24    25    1
     3    25    26    1
     4    26    27    1
     5    22    27    1
     6    22    30    1
     7    30    31   ar
     8    31    32   ar
     9    32    33   ar
    10    33    34    1
    11    33    35   ar
    12    35    36   ar
    13    22     1    1
    14     1     2   ar
    15     2     3   ar
    16     3     4   ar
    17     4    17    1
    18    17    18    1
    19    17    19    1
    20    19    20   ar
    21    19    21   ar
    22     4     5   ar
    23     5     6   ar
    24     6     7    1
    25     7     8   ar
    26     8     9   ar
    27     9    10   ar
    28    10    13    1
    29    13    14    1
    30    13    15    1
    31    13    16    1
    32    10    11   ar
    33    11    12   ar
    34    27    28    1
    35    28    29    1
    36    29    24    1
    37    36    30   ar
    38     6     1   ar
    39    12     7   ar
@<TRIPOS>MOLECULE
*****
 36 39 0 0 0
SMALL
GASTEIGER

@<TRIPOS>ATOM
      1 C          63.3714   87.7816   13.1406 C.ar    1  UNL1       -0.0036
      2 C          64.1926   87.3084   14.3032 C.ar    1  UNL1       -0.0030
      3 C          64.4574   85.8435   14.4875 C.ar    1  UNL1       -0.0042
      4 C          63.9012   84.8518   13.5092 C.ar    1  UNL1       -0.0173
      5 C          63.0800   85.3250   12.3466 C.ar    1  UNL1       -0.0042
      6 C          62.8151   86.7898   12.1622 C.ar    1  UNL1       -0.0027
      7 C          61.9939   87.2630   10.9996 C.ar    1  UNL1       -0.0003
      8 C          60.5199   86.9878   10.9611 C.ar    1  UNL1       -0.0001
      9 C          59.6987   87.4610    9.7984 C.ar    1  UNL1        0.0039
     10 C          60.3516   88.2094    8.6743 C.ar    1  UNL1        0.0714
     11 C          61.8257   88.4846    8.7128 C.ar    1  UNL1        0.0039
     12 C          62.6468   88.0115    9.8754 C.ar    1  UNL1       -0.0001
     13 C          59.5304   88.6826    7.5116 C.3     1  UNL1        0.4186
     14 F          58.7092   89.1558    6.3490 F       1  UNL1       -0.1659
     15 F          60.0790   90.0675    7.6879 F       1  UNL1       -0.1659
     16 F          58.9818   87.2977    7.3354 F       1  UNL1       -0.1659
     17 C          64.1660   83.3869   13.6936 C.3     1  UNL1        0.0588
     18 C          64.4303   82.8392   15.0648 C.3     1  UNL1        0.0106
     19 C          64.1666   82.4697   12.5067 C.2     1  UNL1        0.0540
     20 O          64.9304   82.8428   11.2708 O.co2   1  UNL1       -0.5488
     21 O          63.4034   81.1793   12.5557 O.co2   1  UNL1       -0.5488
     22 C          63.1065   89.2464   12.9562 C.3     1  UNL1        0.1030
     23 C          67.4838   93.2325   13.9317 C.3     1  UNL1        0.0001
     24 C          66.3894   92.2359   13.6878 C.3     1  UNL1        0.0028
     25 C          65.5998   92.2860   12.4135 C.3     1  UNL1        0.0174
     26 C          64.5054   91.2895   12.1696 C.3     1  UNL1        0.0726
     27 N          64.2008   90.2429   13.2001 N.3     1  UNL1       -0.2669
     28 C          64.9905   90.1928   14.4744 C.3     1  UNL1        0.0726
     29 C          66.0848   91.1893   14.7182 C.3     1  UNL1        0.0174
     30 C          61.7474   89.7148   12.5280 C.ar    1  UNL1       -0.0035
     31 C          60.5297   89.2761   13.2862 C.ar    1  UNL1       -0.0003
     32 C          59.1705   89.7445   12.8580 C.ar    1  UNL1        0.0294
     33 C          59.0290   90.6514   11.6717 C.ar    1  UNL1        0.1401
     34 F          57.6699   91.1198   11.2435 F       1  UNL1       -0.2042
     35 C          60.2467   91.0901   10.9136 C.ar    1  UNL1        0.0294
     36 C          61.6059   90.6217   11.3417 C.ar    1  UNL1       -0.0003
@<TRIPOS>UNITY_ATOM_ATTR
20 1
charge -1
@<TRIPOS>BOND
     1    23    24    1
     2    24    25    1
     3    25    26    1
     4    26    27    1
     5    22    27    1
     6    22    30    1
     7    30    31   ar
     8    31    32   ar
     9    32    33   ar
    10    33    34    1
    11    33    35   ar
    12    35    36   ar
    13    22     1    1
    14     1     2   ar
    15     2     3   ar
    16     3     4   ar
    17     4    17    1
    18    17    18    1
    19    17    19    1
    20    19    20   ar
    21    19    21   ar
    22     4     5   ar
    23     5     6   ar
    24     6     7    1
    25     7     8   ar
    26     8     9   ar
    27     9    10   ar
    28    10    13    1
    29    13    14    1
    30    13    15    1
    31    13    16    1
    32    10    11   ar
    33    11    12   ar
    34    27    28    1
    35    28    29    1
    36    29    24    1
    37    36    30   ar
    38     6     1   ar
    39    12     7   ar
@<TRIPOS>MOLECULE
*****
 36 39 0 0 0
SMALL
GASTEIGER

@<TRIPOS>ATOM
      1 C          59.9669   94.2356   -3.3890 C.ar    1  UNL1       -0.0036
      2 C          59.4581   94.5296   -4.7692 C.ar    1  UNL1       -0.0030
      3 C          58.2636   93.7942   -5.3007 C.ar    1  UNL1       -0.0042
      4 C          57.5779   92.7648   -4.4520 C.ar    1  UNL1       -0.0173
      5 C          58.0866   92.4708   -3.0719 C.ar    1  UNL1       -0.0042
      6 C          59.2811   93.2062   -2.5404 C.ar    1  UNL1       -0.0027
      7 C          59.7898   92.9121   -1.1603 C.ar    1  UNL1       -0.0003
      8 C          58.9336   93.2119    0.0343 C.ar    1  UNL1       -0.0001
      9 C          59.4424   92.9179    1.4144 C.ar    1  UNL1        0.0039
     10 C          60.8073   92.3241    1.6000 C.ar    1  UNL1        0.0714
     11 C          61.6635   92.0244    0.4054 C.ar    1  UNL1        0.0039
     12 C          61.1548   92.3184   -0.9748 C.ar    1  UNL1       -0.0001
     13 C          61.3160   92.0301    2.9801 C.3     1  UNL1        0.4186
     14 F          61.8247   91.7361    4.3602 F       1  UNL1       -0.1659
     15 F          60.1139   92.7082    3.5677 F       1  UNL1       -0.1659
     16 F          62.5181   91.3521    2.3926 F       1  UNL1       -0.1659
     17 C          56.3834   92.0294   -4.9835 C.3     1  UNL1        0.0588
     18 C          55.7904   90.8963   -4.1997 C.3     1  UNL1        0.0106
     19 C          55.7819   92.4272   -6.2988 C.2     1  UNL1        0.0540
     20 O          55.4370   93.8630   -6.5622 O.co2   1  UNL1       -0.5488
     21 O          55.5253   91.3891   -7.3506 O.co2   1  UNL1       -0.5488
     22 C          61.1613   94.9709   -2.8575 C.3     1  UNL1        0.1030
     23 C          65.8661   96.0286   -6.4278 C.3     1  UNL1        0.0001
     24 C          64.6899   95.7641   -5.5352 C.3     1  UNL1        0.0028
     25 C          64.6645   94.5380   -4.6716 C.3     1  UNL1        0.0174
     26 C          63.4882   94.2736   -3.7790 C.3     1  UNL1        0.0726
     27 N          62.3375   95.2353   -3.7501 N.3     1  UNL1       -0.2669
     28 C          62.3629   96.4615   -4.6138 C.3     1  UNL1        0.0726
     29 C          63.5391   96.7259   -5.5063 C.3     1  UNL1        0.0174
     30 C          61.1796   95.4418   -1.4335 C.ar    1  UNL1       -0.0035
     31 C          62.3510   95.1222   -0.5529 C.ar    1  UNL1       -0.0003
     32 C          62.3693   95.5931    0.8712 C.ar    1  UNL1        0.0294
     33 C          61.2162   96.3837    1.4146 C.ar    1  UNL1        0.1401
     34 F          61.2345   96.8546    2.8386 F       1  UNL1       -0.2042
     35 C          60.0448   96.7032    0.5339 C.ar    1  UNL1        0.0294
     36 C          60.0265   96.2323   -0.8901 C.ar    1  UNL1       -0.0003
@<TRIPOS>UNITY_ATOM_ATTR
20 1
charge -1
@<TRIPOS>BOND
     1    23    24    1
     2    24    25    1
     3    25    26    1
     4    26    27    1
     5    22    27    1
     6    22    30    1
     7    30    31   ar
     8    31    32   ar
     9    32    33   ar
    10    33    34    1
    11    33    35   ar
    12    35    36   ar
    13    22     1    1
    14     1     2   ar
    15     2     3   ar
    16     3     4   ar
    17     4    17    1
    18    17    18    1
    19    17    19    1
    20    19    20   ar
    21    19    21   ar
    22     4     5   ar
    23     5     6   ar
    24     6     7    1
    25     7     8   ar
    26     8     9   ar
    27     9    10   ar
    28    10    13    1
    29    13    14    1
    30    13    15    1
    31    13    16    1
    32    10    11   ar
    33    11    12   ar
    34    27    28    1
    35    28    29    1
    36    29    24    1
    37    36    30   ar
    38     6     1   ar
    39    12     7   ar
@<TRIPOS>MOLECULE
*****
 36 39 0 0 0
SMALL
GASTEIGER

@<TRIPOS>ATOM
      1 C          63.1110   89.9352   11.3244 C.ar    1  UNL1       -0.0036
      2 C          63.3391   90.7510   10.0865 C.ar    1  UNL1       -0.0030
      3 C          64.3441   91.8645   10.0968 C.ar    1  UNL1       -0.0042
      4 C          65.1210   92.1622   11.3449 C.ar    1  UNL1       -0.0173
      5 C          64.8928   91.3463   12.5828 C.ar    1  UNL1       -0.0042
      6 C          63.8879   90.2329   12.5726 C.ar    1  UNL1       -0.0027
      7 C          63.6597   89.4170   13.8104 C.ar    1  UNL1       -0.0003
      8 C          64.3006   88.0678   13.9482 C.ar    1  UNL1       -0.0001
      9 C          64.0724   87.2520   15.1860 C.ar    1  UNL1        0.0039
     10 C          63.2035   87.7853   16.2862 C.ar    1  UNL1        0.0714
     11 C          62.5626   89.1346   16.1485 C.ar    1  UNL1        0.0039
     12 C          62.7907   89.9504   14.9106 C.ar    1  UNL1       -0.0001
     13 C          62.9753   86.9695   17.5241 C.3     1  UNL1        0.4186
     14 F          62.7472   86.1536   18.7620 F       1  UNL1       -0.1659
     15 F          63.1080   88.2057   18.3633 F       1  UNL1       -0.1659
     16 F          62.8427   85.7333   16.6849 F       1  UNL1       -0.1659
     17 C          66.1260   93.2757   11.3553 C.3     1  UNL1        0.0588
     18 C          66.1721   94.2337   12.5086 C.3     1  UNL1        0.0106
     19 C          67.0848   93.4312   10.2123 C.2     1  UNL1        0.0540
     20 O          66.8058   94.4316    9.1300 O.co2   1  UNL1       -0.5488
     21 O          68.3227   92.5863   10.1517 O.co2   1  UNL1       -0.5488
     22 C          62.1060   88.8217   11.3141 C.3     1  UNL1        0.1030
     23 C          63.8166   83.2499    9.8895 C.3     1  UNL1        0.0001
     24 C          63.3889   84.6429   10.2457 C.3     1  UNL1        0.0028
     25 C          63.3066   85.0572   11.6849 C.3     1  UNL1        0.0174
     26 C          62.8790   86.4502   12.0411 C.3     1  UNL1        0.0726
     27 N          62.5337   87.4288   10.9580 N.3     1  UNL1       -0.2669
     28 C          62.6160   87.0143    9.5187 C.3     1  UNL1        0.0726
     29 C          63.0436   85.6214    9.1625 C.3     1  UNL1        0.0174
     30 C          60.6734   89.1011   11.6600 C.ar    1  UNL1       -0.0035
     31 C          60.0805   90.4478   11.3689 C.ar    1  UNL1       -0.0003
     32 C          58.6480   90.7272   11.7147 C.ar    1  UNL1        0.0294
     33 C          57.8083   89.6599   12.3517 C.ar    1  UNL1        0.1401
     34 F          56.3757   89.9394   12.6975 F       1  UNL1       -0.2042
     35 C          58.4012   88.3132   12.6428 C.ar    1  UNL1        0.0294
     36 C          59.8338   88.0338   12.2969 C.ar    1  UNL1       -0.0003
@<TRIPOS>UNITY_ATOM_ATTR
20 1
charge -1
@<TRIPOS>BOND
     1    23    24    1
     2    24    25    1
     3    25    26    1
     4    26    27    1
     5    22    27    1
     6    22    30    1
     7    30    31   ar
     8    31    32   ar
     9    32    33   ar
    10    33    34    1
    11    33    35   ar
    12    35    36   ar
    13    22     1    1
    14     1     2   ar
    15     2     3   ar
    16     3     4   ar
    17     4    17    1
    18    17    18    1
    19    17    19    1
    20    19    20   ar
    21    19    21   ar
    22     4     5   ar
    23     5     6   ar
    24     6     7    1
    25     7     8   ar
    26     8     9   ar
    27     9    10   ar
    28    10    13    1
    29    13    14    1
    30    13    15    1
    31    13    16    1
    32    10    11   ar
    33    11    12   ar
    34    27    28    1
    35    28    29    1
    36    29    24    1
    37    36    30   ar
    38     6     1   ar
    39    12     7   ar
