@<TRIPOS>MOLECULE
*****
 47 51 0 0 0
SMALL
GASTEIGER

@<TRIPOS>ATOM
      1 O          62.6648   89.5929   15.8757 O.3     1  UNL1       -0.4516
      2 C          63.3557   90.5966   12.4011 C.3     1  UNL1        0.0468
      3 C          62.5569   90.1376   10.5151 C.3     1  UNL1        0.0069
      4 C          63.2060   90.3589   13.3235 C.3     1  UNL1        0.0500
      5 C          63.6089   90.6035   14.1647 C.3     1  UNL1        0.1694
      6 C          64.4279   91.1897   15.1248 C.3     1  UNL1        0.0435
      7 C          64.6410   91.1955   16.6096 C.3     1  UNL1        0.0040
      8 C          64.4746   91.3263   14.3117 C.3     1  UNL1        0.0038
      9 C          62.5274   89.6269   14.6003 C.3     1  UNL1        0.0001
     10 C          64.5156   91.4619   13.4660 C.3     1  UNL1        0.0001
     11 C          65.0362   91.9363   13.2203 C.3     1  UNL1        0.0005
     12 C          65.6172   92.4629   12.9693 C.3     1  UNL1        0.0093
     13 C          66.7538   93.4406   12.9212 C.3     1  UNL1        0.0082
     14 C          67.2233   93.6750   14.3264 C.3     1  UNL1        0.0645
     15 C          66.3768   92.8423   15.2430 C.2     1  UNL1        0.1504
     16 O          66.5011   92.7711   16.7361 O.2     1  UNL1       -0.2961
     17 C          65.3842   92.0931   14.4042 C.3     1  UNL1        0.0610
     18 C          64.6900   91.7609   12.2051 C.3     1  UNL1        0.0276
     19 C          65.6342   92.7716   10.4941 C.3     1  UNL1        0.0025
     20 C          63.9705   91.1774   11.9378 C.3     1  UNL1        0.1141
     21 O          63.6580   91.1689    9.7601 O.3     1  UNL1       -0.3841
     22 H          62.9272   90.5700    9.5407 H       1  UNL1        0.2103
     23 C          60.2872   89.5024   11.9189 C.2     1  UNL1       -0.0048
     24 C          61.7732   89.2987   11.9354 C.2     1  UNL1       -0.0243
     25 C          63.1923   88.2715   16.3507 C.2     1  UNL1        0.3283
     26 O          62.9117   87.8114   17.7505 O.2     1  UNL1       -0.2491
     27 C          64.0002   87.4102   15.4259 C.3     1  UNL1        0.1715
     28 S          64.2266   85.9641   15.7540 S.3     1  UNL1       -0.1003
     29 C          63.7800   84.8990   14.7969 C.ar    1  UNL1        0.0461
     30 C          63.7165   83.4683   15.2432 C.ar    1  UNL1        0.1051
     31 N          63.2699   82.4032   14.2860 N.ar    1  UNL1       -0.2405
     32 C          62.8869   82.7688   12.8825 C.ar    1  UNL1        0.1135
     33 C          62.9504   84.1995   12.4362 C.ar    1  UNL1        0.0703
     34 C          63.3970   85.2646   13.3934 C.ar    1  UNL1        0.0240
     35 N          62.5674   84.5651   11.0328 N.am    1  UNL1       -0.2815
     36 C          63.4810   84.2239    9.8930 C.2     1  UNL1        0.2425
     37 O          64.7774   83.5170   10.1567 O.2     1  UNL1       -0.2733
     38 H          61.7165   85.0290   10.8597 H       1  UNL1        0.1549
     39 C          63.0980   84.5895    8.4895 C.3     1  UNL1        0.1587
     40 N          61.9207   85.4855    8.2427 N.3     1  UNL1       -0.2649
     41 C          60.8758   85.0923    7.2409 C.3     1  UNL1        0.0750
     42 C          59.6985   85.9884    6.9941 C.3     1  UNL1        0.0466
     43 C          59.5661   87.2778    7.7490 C.3     1  UNL1        0.1133
     44 O          58.3888   88.1739    7.5022 O.3     1  UNL1       -0.3844
     45 C          60.6110   87.6710    8.7508 C.3     1  UNL1        0.0466
     46 C          61.7883   86.7749    8.9977 C.3     1  UNL1        0.0750
     47 H          57.8138   87.7748    6.8306 H       1  UNL1        0.2103
@<TRIPOS>BOND
     1    23    24    2
     2    24     2    1
     3     2     3    1
     4     2     4    1
     5     4     5    1
     6     5     1    1
     7     1    25    1
     8    25    26    2
     9    25    27    1
    10    27    28    1
    11    28    29    1
    12    29    30   ar
    13    30    31   ar
    14    31    32   ar
    15    32    33   ar
    16    33    35    1
    17    35    36   am
    18    36    37    2
    19    36    39    1
    20    39    40    1
    21    40    41    1
    22    41    42    1
    23    42    43    1
    24    43    44    1
    25    43    45    1
    26    45    46    1
    27    33    34   ar
    28     5     6    1
    29     6     7    1
    30     6     8    1
    31     8     9    1
    32     8    10    1
    33    10    11    1
    34    12    11    1
    35    12    13    1
    36    13    14    1
    37    14    15    1
    38    15    16    2
    39    17    15    1
    40    12    18    1
    41    18    19    1
    42    18    20    1
    43    20    21    1
    44    20     2    1
    45    34    29   ar
    46    17     6    1
    47    46    40    1
    48    17    12    1
    49    35    38    1
    50    44    47    1
    51    21    22    1
@<TRIPOS>MOLECULE
*****
 47 51 0 0 0
SMALL
GASTEIGER

@<TRIPOS>ATOM
      1 O          63.5352   89.8079   16.0648 O.3     1  UNL1       -0.4516
      2 C          65.6838   91.5992   13.6706 C.3     1  UNL1        0.0468
      3 C          67.5581   92.5412   13.7433 C.3     1  UNL1        0.0069
      4 C          65.0931   91.1245   14.2668 C.3     1  UNL1        0.0500
      5 C          64.2289   90.7055   14.1799 C.3     1  UNL1        0.1694
      6 C          63.0261   90.2367   13.6608 C.3     1  UNL1        0.0435
      7 C          61.8013   89.4843   14.0896 C.3     1  UNL1        0.0040
      8 C          63.5982   90.6529   13.2350 C.3     1  UNL1        0.0038
      9 C          64.5597   90.4553   15.6431 C.3     1  UNL1        0.0001
     10 C          64.1979   91.0856   12.8009 C.3     1  UNL1        0.0001
     11 C          64.0652   91.2245   12.0800 C.3     1  UNL1        0.0005
     12 C          63.9001   91.3676   11.2862 C.3     1  UNL1        0.0093
     13 C          63.2499   91.4215    9.9355 C.3     1  UNL1        0.0082
     14 C          61.9293   90.7164   10.0283 C.3     1  UNL1        0.0645
     15 C          61.7632   90.2267   11.4364 C.2     1  UNL1        0.1504
     16 O          60.5858   89.4678   11.9728 O.2     1  UNL1       -0.2961
     17 C          62.9813   90.6292   12.2138 C.3     1  UNL1        0.0610
     18 C          65.0236   91.7337   12.0212 C.3     1  UNL1        0.0276
     19 C          65.7173   92.6315   10.1362 C.3     1  UNL1        0.0025
     20 C          65.6550   91.8516   12.7403 C.3     1  UNL1        0.1141
     21 O          67.4513   92.9551   12.1113 O.3     1  UNL1       -0.3841
     22 H          68.0542   93.0482   12.8655 H       1  UNL1        0.2103
     23 C          67.0787   92.8345   16.3861 C.2     1  UNL1       -0.0048
     24 C          66.9822   91.7960   15.3080 C.2     1  UNL1       -0.0243
     25 C          63.3197   88.3262   16.1553 C.2     1  UNL1        0.3283
     26 O          62.1543   87.7838   16.9284 O.2     1  UNL1       -0.2491
     27 C          64.2694   87.3871   15.4728 C.3     1  UNL1        0.1715
     28 S          64.2621   85.9282   15.8218 S.3     1  UNL1       -0.1003
     29 C          63.8456   84.9141   14.7979 C.ar    1  UNL1        0.0461
     30 C          63.7946   83.4596   15.1606 C.ar    1  UNL1        0.1051
     31 N          63.3781   82.4455   14.1367 N.ar    1  UNL1       -0.2405
     32 C          63.0128   82.8861   12.7502 C.ar    1  UNL1        0.1135
     33 C          63.0638   84.3407   12.3875 C.ar    1  UNL1        0.0703
     34 C          63.4802   85.3547   13.4114 C.ar    1  UNL1        0.0240
     35 N          62.6984   84.7813   11.0010 N.am    1  UNL1       -0.2815
     36 C          63.4841   84.2832    9.8243 C.2     1  UNL1        0.2425
     37 O          64.6351   83.3445   10.0341 O.2     1  UNL1       -0.2733
     38 H          61.9429   85.3973   10.8633 H       1  UNL1        0.1549
     39 C          63.1187   84.7238    8.4378 C.3     1  UNL1        0.1587
     40 N          61.9231   85.6031    8.2210 N.3     1  UNL1       -0.2649
     41 C          60.8378   85.1745    7.2783 C.3     1  UNL1        0.0750
     42 C          59.6421   86.0540    7.0615 C.3     1  UNL1        0.0466
     43 C          59.5317   87.3620    7.7873 C.3     1  UNL1        0.1133
     44 O          58.3360   88.2414    7.5705 O.3     1  UNL1       -0.3844
     45 C          60.6170   87.7906    8.7300 C.3     1  UNL1        0.0466
     46 C          61.8127   86.9112    8.9468 C.3     1  UNL1        0.0750
     47 H          57.7352   87.8197    6.9365 H       1  UNL1        0.2103
@<TRIPOS>BOND
     1    23    24    2
     2    24     2    1
     3     2     3    1
     4     2     4    1
     5     4     5    1
     6     5     1    1
     7     1    25    1
     8    25    26    2
     9    25    27    1
    10    27    28    1
    11    28    29    1
    12    29    30   ar
    13    30    31   ar
    14    31    32   ar
    15    32    33   ar
    16    33    35    1
    17    35    36   am
    18    36    37    2
    19    36    39    1
    20    39    40    1
    21    40    41    1
    22    41    42    1
    23    42    43    1
    24    43    44    1
    25    43    45    1
    26    45    46    1
    27    33    34   ar
    28     5     6    1
    29     6     7    1
    30     6     8    1
    31     8     9    1
    32     8    10    1
    33    10    11    1
    34    12    11    1
    35    12    13    1
    36    13    14    1
    37    14    15    1
    38    15    16    2
    39    17    15    1
    40    12    18    1
    41    18    19    1
    42    18    20    1
    43    20    21    1
    44    20     2    1
    45    34    29   ar
    46    17     6    1
    47    46    40    1
    48    17    12    1
    49    35    38    1
    50    44    47    1
    51    21    22    1
@<TRIPOS>MOLECULE
*****
 47 51 0 0 0
SMALL
GASTEIGER

@<TRIPOS>ATOM
      1 O          61.6694   89.4939    9.4176 O.3     1  UNL1       -0.4516
      2 C          62.6344   86.7964   11.7305 C.3     1  UNL1        0.0468
      3 C          62.3787   84.7143   11.8043 C.3     1  UNL1        0.0069
      4 C          62.4006   87.5302   11.1504 C.3     1  UNL1        0.0500
      5 C          62.5456   88.4834   11.1643 C.3     1  UNL1        0.1694
      6 C          62.9497   89.7603   11.5418 C.3     1  UNL1        0.0435
      7 C          62.8749   91.1806   11.0651 C.3     1  UNL1        0.0040
      8 C          63.0991   89.0685   11.9673 C.3     1  UNL1        0.0038
      9 C          61.7639   88.2980    9.8730 C.3     1  UNL1        0.0001
     10 C          63.2496   88.3450   12.4022 C.3     1  UNL1        0.0001
     11 C          63.6311   88.4026   13.0407 C.3     1  UNL1        0.0005
     12 C          64.0536   88.4872   13.7424 C.3     1  UNL1        0.0093
     13 C          64.8154   89.0430   14.9088 C.3     1  UNL1        0.0082
     14 C          64.9224   90.5281   14.7272 C.3     1  UNL1        0.0645
     15 C          64.2268   90.8901   13.4485 C.2     1  UNL1        0.1504
     16 O          64.0918   92.2710   12.8786 O.2     1  UNL1       -0.2961
     17 C          63.6898   89.6287   12.8398 C.3     1  UNL1        0.0610
     18 C          63.5491   87.3259   13.1648 C.3     1  UNL1        0.0276
     19 C          64.4254   86.3154   14.9116 C.3     1  UNL1        0.0025
     20 C          63.1102   86.7117   12.5650 C.3     1  UNL1        0.1141
     21 O          63.2199   84.6287   13.2641 O.3     1  UNL1       -0.3841
     22 H          62.7665   84.0507   12.6306 H       1  UNL1        0.2103
     23 C          61.6425   85.5352    8.8545 C.2     1  UNL1       -0.0048
     24 C          61.6513   85.5532   10.3543 C.2     1  UNL1       -0.0243
     25 C          60.1815   89.6500    9.3096 C.2     1  UNL1        0.3283
     26 O          59.4664   90.6419   10.1784 O.2     1  UNL1       -0.2491
     27 C          59.4087   88.8143    8.3328 C.3     1  UNL1        0.1715
     28 S          59.6812   88.9343    6.8627 S.3     1  UNL1       -0.1003
     29 C          59.0089   90.0089    6.0605 C.ar    1  UNL1        0.0461
     30 C          57.5120   90.1018    6.0372 C.ar    1  UNL1        0.1051
     31 N          56.8397   91.1763    5.2350 N.ar    1  UNL1       -0.2405
     32 C          57.6644   92.1578    4.4562 C.ar    1  UNL1        0.1135
     33 C          59.1613   92.0649    4.4794 C.ar    1  UNL1        0.0703
     34 C          59.8336   90.9904    5.2816 C.ar    1  UNL1        0.0240
     35 N          59.9860   93.0464    3.7006 N.am    1  UNL1       -0.2815
     36 C          59.7677   93.2050    2.2250 C.2     1  UNL1        0.2425
     37 O          58.7249   92.3821    1.5284 O.2     1  UNL1       -0.2733
     38 H          60.6704   93.5864    4.1579 H       1  UNL1        0.1549
     39 C          60.5924   94.1865    1.4462 C.3     1  UNL1        0.1587
     40 N          62.0503   93.9224    1.2128 N.3     1  UNL1       -0.2649
     41 C          62.7557   92.8594    2.0017 C.3     1  UNL1        0.0750
     42 C          64.2138   92.5953    1.7683 C.3     1  UNL1        0.0466
     43 C          64.9664   93.3943    0.7459 C.3     1  UNL1        0.1133
     44 O          66.4244   93.1302    0.5125 O.3     1  UNL1       -0.3844
     45 C          64.2610   94.4573   -0.0430 C.3     1  UNL1        0.0466
     46 C          62.8030   94.7214    0.1904 C.3     1  UNL1        0.0750
     47 H          66.7221   92.4178    1.0997 H       1  UNL1        0.2103
@<TRIPOS>BOND
     1    23    24    2
     2    24     2    1
     3     2     3    1
     4     2     4    1
     5     4     5    1
     6     5     1    1
     7     1    25    1
     8    25    26    2
     9    25    27    1
    10    27    28    1
    11    28    29    1
    12    29    30   ar
    13    30    31   ar
    14    31    32   ar
    15    32    33   ar
    16    33    35    1
    17    35    36   am
    18    36    37    2
    19    36    39    1
    20    39    40    1
    21    40    41    1
    22    41    42    1
    23    42    43    1
    24    43    44    1
    25    43    45    1
    26    45    46    1
    27    33    34   ar
    28     5     6    1
    29     6     7    1
    30     6     8    1
    31     8     9    1
    32     8    10    1
    33    10    11    1
    34    12    11    1
    35    12    13    1
    36    13    14    1
    37    14    15    1
    38    15    16    2
    39    17    15    1
    40    12    18    1
    41    18    19    1
    42    18    20    1
    43    20    21    1
    44    20     2    1
    45    34    29   ar
    46    17     6    1
    47    46    40    1
    48    17    12    1
    49    35    38    1
    50    44    47    1
    51    21    22    1
@<TRIPOS>MOLECULE
*****
 47 51 0 0 0
SMALL
GASTEIGER

@<TRIPOS>ATOM
      1 O          64.1407   86.6205   15.4006 O.3     1  UNL1       -0.4516
      2 C          62.9368   86.7179   11.9223 C.3     1  UNL1        0.0468
      3 C          62.4380   88.2206   10.5442 C.3     1  UNL1        0.0069
      4 C          63.2519   86.6505   12.8311 C.3     1  UNL1        0.0500
      5 C          63.4682   85.9227   13.4256 C.3     1  UNL1        0.1694
      6 C          63.6677   84.6486   13.9481 C.3     1  UNL1        0.0435
      7 C          64.1152   83.9792   15.2136 C.3     1  UNL1        0.0040
      8 C          63.4012   84.8134   13.1841 C.3     1  UNL1        0.0038
      9 C          63.7504   87.1392   14.2938 C.3     1  UNL1        0.0001
     10 C          63.1249   84.9942   12.3926 C.3     1  UNL1        0.0001
     11 C          62.9776   84.4184   11.9418 C.3     1  UNL1        0.0005
     12 C          62.8205   83.7695   11.4598 C.3     1  UNL1        0.0093
     13 C          62.6553   82.3790   10.9221 C.3     1  UNL1        0.0082
     14 C          63.0434   81.4148   12.0036 C.3     1  UNL1        0.0645
     15 C          63.4486   82.2094   13.2096 C.2     1  UNL1        0.1504
     16 O          63.9104   81.6473   14.5214 O.2     1  UNL1       -0.2961
     17 C          63.3108   83.6647   12.8735 C.3     1  UNL1        0.0610
     18 C          62.6980   85.1237   11.1635 C.3     1  UNL1        0.0276
     19 C          62.0255   84.4259    9.1884 C.3     1  UNL1        0.0025
     20 C          62.7073   86.0854   11.2315 C.3     1  UNL1        0.1141
     21 O          62.0511   87.0673    9.3754 O.3     1  UNL1       -0.3841
     22 H          62.0771   88.0299    9.4921 H       1  UNL1        0.2103
     23 C          61.9096   89.8088   12.4094 C.2     1  UNL1       -0.0048
     24 C          62.9963   88.7997   12.1837 C.2     1  UNL1       -0.0243
     25 C          63.1386   87.1042   16.4065 C.2     1  UNL1        0.3283
     26 O          62.0350   86.1961   16.8620 O.2     1  UNL1       -0.2491
     27 C          63.2400   88.4958   16.9568 C.3     1  UNL1        0.1715
     28 S          62.8731   89.6703   16.0988 S.3     1  UNL1       -0.1003
     29 C          63.8895   90.7351   15.8105 C.ar    1  UNL1        0.0461
     30 C          64.3511   91.6480   16.9077 C.ar    1  UNL1        0.1051
     31 N          65.3674   92.7129   16.6194 N.ar    1  UNL1       -0.2405
     32 C          65.9221   92.8648   15.2340 C.ar    1  UNL1        0.1135
     33 C          65.4606   91.9520   14.1369 C.ar    1  UNL1        0.0703
     34 C          64.4442   90.8871   14.4252 C.ar    1  UNL1        0.0240
     35 N          66.0153   92.1040   12.7516 N.am    1  UNL1       -0.2815
     36 C          67.4996   92.1391   12.5377 C.2     1  UNL1        0.2425
     37 O          68.4290   92.0222   13.7092 O.2     1  UNL1       -0.2733
     38 H          65.4052   92.1807   11.9827 H       1  UNL1        0.1549
     39 C          68.0543   92.2910   11.1523 C.3     1  UNL1        0.1587
     40 N          67.6076   93.4316   10.2866 N.3     1  UNL1       -0.2649
     41 C          66.7844   94.5403   10.8725 C.3     1  UNL1        0.0750
     42 C          66.3378   95.6809   10.0067 C.3     1  UNL1        0.0466
     43 C          66.7143   95.7128    8.5551 C.3     1  UNL1        0.1133
     44 O          66.2677   96.8534    7.6893 O.3     1  UNL1       -0.3844
     45 C          67.5376   94.6041    7.9692 C.3     1  UNL1        0.0466
     46 C          67.9842   93.4635    8.8350 C.3     1  UNL1        0.0750
     47 H          65.7491   97.4783    8.2199 H       1  UNL1        0.2103
@<TRIPOS>BOND
     1    23    24    2
     2    24     2    1
     3     2     3    1
     4     2     4    1
     5     4     5    1
     6     5     1    1
     7     1    25    1
     8    25    26    2
     9    25    27    1
    10    27    28    1
    11    28    29    1
    12    29    30   ar
    13    30    31   ar
    14    31    32   ar
    15    32    33   ar
    16    33    35    1
    17    35    36   am
    18    36    37    2
    19    36    39    1
    20    39    40    1
    21    40    41    1
    22    41    42    1
    23    42    43    1
    24    43    44    1
    25    43    45    1
    26    45    46    1
    27    33    34   ar
    28     5     6    1
    29     6     7    1
    30     6     8    1
    31     8     9    1
    32     8    10    1
    33    10    11    1
    34    12    11    1
    35    12    13    1
    36    13    14    1
    37    14    15    1
    38    15    16    2
    39    17    15    1
    40    12    18    1
    41    18    19    1
    42    18    20    1
    43    20    21    1
    44    20     2    1
    45    34    29   ar
    46    17     6    1
    47    46    40    1
    48    17    12    1
    49    35    38    1
    50    44    47    1
    51    21    22    1
@<TRIPOS>MOLECULE
*****
 47 51 0 0 0
SMALL
GASTEIGER

@<TRIPOS>ATOM
      1 O          63.6095   85.2214   10.9027 O.3     1  UNL1       -0.4516
      2 C          61.1722   86.2650    8.3476 C.3     1  UNL1        0.0468
      3 C          60.4525   85.4725    6.5422 C.3     1  UNL1        0.0069
      4 C          61.8019   86.0269    9.0379 C.3     1  UNL1        0.0500
      5 C          62.0991   86.4343    9.8599 C.3     1  UNL1        0.1694
      6 C          62.2537   87.3151   10.9260 C.3     1  UNL1        0.0435
      7 C          63.0340   87.4576   12.1991 C.3     1  UNL1        0.0040
      8 C          61.7424   87.4261   10.2871 C.3     1  UNL1        0.0038
      9 C          62.9158   85.1518    9.8254 C.3     1  UNL1        0.0001
     10 C          61.2145   87.5330    9.6198 C.3     1  UNL1        0.0001
     11 C          60.7998   88.1529    9.6074 C.3     1  UNL1        0.0005
     12 C          60.3508   88.8431    9.6121 C.3     1  UNL1        0.0093
     13 C          59.7381   90.1623    9.9786 C.3     1  UNL1        0.0082
     14 C          60.3390   90.6071   11.2790 C.3     1  UNL1        0.0645
     15 C          61.3232   89.5629   11.7162 C.2     1  UNL1        0.1504
     16 O          62.1541   89.6021   12.9644 O.2     1  UNL1       -0.2961
     17 C          61.3305   88.4727   10.6859 C.3     1  UNL1        0.0610
     18 C          60.3692   87.8234    8.6654 C.3     1  UNL1        0.0276
     19 C          58.8588   89.0364    7.6225 C.3     1  UNL1        0.0025
     20 C          60.5787   87.0092    8.1933 C.3     1  UNL1        0.1141
     21 O          59.4343   86.8002    6.3261 O.3     1  UNL1       -0.3841
     22 H          59.6783   85.9695    5.8886 H       1  UNL1        0.2103
     23 C          62.6535   84.1699    6.2831 C.2     1  UNL1       -0.0048
     24 C          61.7062   84.4657    7.4079 C.2     1  UNL1       -0.0243
     25 C          63.3335   83.7788   11.2068 C.2     1  UNL1        0.3283
     26 O          63.3487   82.7634   10.1029 O.2     1  UNL1       -0.2491
     27 C          63.0424   83.3515   12.6148 C.3     1  UNL1        0.1715
     28 S          63.9921   83.7101   13.7191 S.3     1  UNL1       -0.1003
     29 C          63.5968   84.7282   14.7473 C.ar    1  UNL1        0.0461
     30 C          62.6237   84.3631   15.8288 C.ar    1  UNL1        0.1051
     31 N          62.2284   85.3812   16.8570 N.ar    1  UNL1       -0.2405
     32 C          62.8062   86.7644   16.8036 C.ar    1  UNL1        0.1135
     33 C          63.7793   87.1296   15.7221 C.ar    1  UNL1        0.0703
     34 C          64.1746   86.1114   14.6939 C.ar    1  UNL1        0.0240
     35 N          64.3571   88.5128   15.6688 N.am    1  UNL1       -0.2815
     36 C          63.4674   89.7052   15.8606 C.2     1  UNL1        0.2425
     37 O          62.0000   89.5142   16.1059 O.2     1  UNL1       -0.2733
     38 H          65.3202   88.6381   15.5078 H       1  UNL1        0.1549
     39 C          64.0452   91.0884   15.8072 C.3     1  UNL1        0.1587
     40 N          64.9717   91.4716   14.6916 N.3     1  UNL1       -0.2649
     41 C          66.4419   91.6136   14.9529 C.3     1  UNL1        0.0750
     42 C          67.3684   91.9968   13.8372 C.3     1  UNL1        0.0466
     43 C          66.8247   92.2380   12.4602 C.3     1  UNL1        0.1133
     44 O          67.7512   92.6213   11.3445 O.3     1  UNL1       -0.3844
     45 C          65.3544   92.0960   12.1989 C.3     1  UNL1        0.0466
     46 C          64.4279   91.7128   13.3146 C.3     1  UNL1        0.0750
     47 H          68.6598   92.6689   11.6807 H       1  UNL1        0.2103
@<TRIPOS>BOND
     1    23    24    2
     2    24     2    1
     3     2     3    1
     4     2     4    1
     5     4     5    1
     6     5     1    1
     7     1    25    1
     8    25    26    2
     9    25    27    1
    10    27    28    1
    11    28    29    1
    12    29    30   ar
    13    30    31   ar
    14    31    32   ar
    15    32    33   ar
    16    33    35    1
    17    35    36   am
    18    36    37    2
    19    36    39    1
    20    39    40    1
    21    40    41    1
    22    41    42    1
    23    42    43    1
    24    43    44    1
    25    43    45    1
    26    45    46    1
    27    33    34   ar
    28     5     6    1
    29     6     7    1
    30     6     8    1
    31     8     9    1
    32     8    10    1
    33    10    11    1
    34    12    11    1
    35    12    13    1
    36    13    14    1
    37    14    15    1
    38    15    16    2
    39    17    15    1
    40    12    18    1
    41    18    19    1
    42    18    20    1
    43    20    21    1
    44    20     2    1
    45    34    29   ar
    46    17     6    1
    47    46    40    1
    48    17    12    1
    49    35    38    1
    50    44    47    1
    51    21    22    1
@<TRIPOS>MOLECULE
*****
 47 51 0 0 0
SMALL
GASTEIGER

@<TRIPOS>ATOM
      1 O          61.3891   87.8418    9.2740 O.3     1  UNL1       -0.4516
      2 C          63.2033   88.7873   12.3354 C.3     1  UNL1        0.0468
      3 C          63.8271   90.5856   13.2201 C.3     1  UNL1        0.0069
      4 C          62.7320   88.4994   11.5450 C.3     1  UNL1        0.0500
      5 C          62.4681   87.6463   11.1812 C.3     1  UNL1        0.1694
      6 C          62.2772   86.2794   11.0038 C.3     1  UNL1        0.0435
      7 C          61.6582   85.3189   10.0321 C.3     1  UNL1        0.0040
      8 C          62.6664   86.6266   11.6441 C.3     1  UNL1        0.0038
      9 C          61.9348   88.6169   10.1388 C.3     1  UNL1        0.0001
     10 C          63.0689   86.9959   12.3051 C.3     1  UNL1        0.0001
     11 C          63.3422   86.5462   12.8339 C.3     1  UNL1        0.0005
     12 C          63.6366   86.0331   13.4066 C.3     1  UNL1        0.0093
     13 C          64.0081   84.8124   14.1951 C.3     1  UNL1        0.0082
     14 C          63.5046   83.6102   13.4526 C.3     1  UNL1        0.0645
     15 C          62.8219   84.0879   12.2054 C.2     1  UNL1        0.1504
     16 O          62.1717   83.2205   11.1686 O.2     1  UNL1       -0.2961
     17 C          62.9034   85.5855   12.1770 C.3     1  UNL1        0.0610
     18 C          63.7038   87.4225   13.3656 C.3     1  UNL1        0.0276
     19 C          64.7828   87.2270   15.2729 C.3     1  UNL1        0.0025
     20 C          63.6059   88.3411   13.0896 C.3     1  UNL1        0.1141
     21 O          64.5137   89.7499   14.5148 O.3     1  UNL1       -0.3841
     22 H          64.3902   90.6575   14.1955 H       1  UNL1        0.2103
     23 C          63.4681   91.4613   10.4315 C.2     1  UNL1       -0.0048
     24 C          62.9315   90.7479   11.6369 C.2     1  UNL1       -0.0243
     25 C          60.1328   88.6582    9.2032 C.2     1  UNL1        0.3283
     26 O          59.8141   89.6400   10.2916 O.2     1  UNL1       -0.2491
     27 C          59.1952   88.4930    8.0441 C.3     1  UNL1        0.1715
     28 S          59.6412   88.8619    6.6602 S.3     1  UNL1       -0.1003
     29 C          58.9773   89.9949    5.9353 C.ar    1  UNL1        0.0461
     30 C          57.4820   90.1143    5.9395 C.ar    1  UNL1        0.1051
     31 N          56.8181   91.2473    5.2146 N.ar    1  UNL1       -0.2405
     32 C          57.6494   92.2609    4.4855 C.ar    1  UNL1        0.1135
     33 C          59.1447   92.1416    4.4813 C.ar    1  UNL1        0.0703
     34 C          59.8086   91.0085    5.2062 C.ar    1  UNL1        0.0240
     35 N          59.9760   93.1551    3.7523 N.am    1  UNL1       -0.2815
     36 C          59.8459   93.3021    2.2651 C.2     1  UNL1        0.2425
     37 O          58.8844   92.4355    1.5072 O.2     1  UNL1       -0.2733
     38 H          60.6070   93.7239    4.2498 H       1  UNL1        0.1549
     39 C          60.6772   94.3157    1.5361 C.3     1  UNL1        0.1587
     40 N          62.1307   94.0487    1.2793 N.3     1  UNL1       -0.2649
     41 C          62.9057   94.9417    0.3563 C.3     1  UNL1        0.0750
     42 C          64.3592   94.6748    0.0996 C.3     1  UNL1        0.0466
     43 C          65.0378   93.5148    0.7659 C.3     1  UNL1        0.1133
     44 O          66.4914   93.2478    0.5092 O.3     1  UNL1       -0.3844
     45 C          64.2628   92.6218    1.6889 C.3     1  UNL1        0.0466
     46 C          62.8092   92.8888    1.9457 C.3     1  UNL1        0.0750
     47 H          66.8386   93.9129   -0.1056 H       1  UNL1        0.2103
@<TRIPOS>BOND
     1    23    24    2
     2    24     2    1
     3     2     3    1
     4     2     4    1
     5     4     5    1
     6     5     1    1
     7     1    25    1
     8    25    26    2
     9    25    27    1
    10    27    28    1
    11    28    29    1
    12    29    30   ar
    13    30    31   ar
    14    31    32   ar
    15    32    33   ar
    16    33    35    1
    17    35    36   am
    18    36    37    2
    19    36    39    1
    20    39    40    1
    21    40    41    1
    22    41    42    1
    23    42    43    1
    24    43    44    1
    25    43    45    1
    26    45    46    1
    27    33    34   ar
    28     5     6    1
    29     6     7    1
    30     6     8    1
    31     8     9    1
    32     8    10    1
    33    10    11    1
    34    12    11    1
    35    12    13    1
    36    13    14    1
    37    14    15    1
    38    15    16    2
    39    17    15    1
    40    12    18    1
    41    18    19    1
    42    18    20    1
    43    20    21    1
    44    20     2    1
    45    34    29   ar
    46    17     6    1
    47    46    40    1
    48    17    12    1
    49    35    38    1
    50    44    47    1
    51    21    22    1
@<TRIPOS>MOLECULE
*****
 47 51 0 0 0
SMALL
GASTEIGER

@<TRIPOS>ATOM
      1 O          61.9460   85.2283   14.2580 O.3     1  UNL1       -0.4516
      2 C          63.1960   83.9887   11.0241 C.3     1  UNL1        0.0468
      3 C          64.4186   82.4044   10.3907 C.3     1  UNL1        0.0069
      4 C          62.8486   84.3439   11.8504 C.3     1  UNL1        0.0500
      5 C          62.2816   85.0867   12.0884 C.3     1  UNL1        0.1694
      6 C          61.4681   86.2133   12.0167 C.3     1  UNL1        0.0435
      7 C          60.6983   87.1377   12.9128 C.3     1  UNL1        0.0040
      8 C          61.8139   85.8340   11.3699 C.3     1  UNL1        0.0038
      9 C          62.5860   84.4697   13.4448 C.3     1  UNL1        0.0001
     10 C          62.1772   85.4335   10.7042 C.3     1  UNL1        0.0001
     11 C          62.0469   85.7122   10.0246 C.3     1  UNL1        0.0005
     12 C          61.8910   86.0350    9.2833 C.3     1  UNL1        0.0093
     13 C          61.3859   86.8929    8.1614 C.3     1  UNL1        0.0082
     14 C          60.5333   87.9756    8.7535 C.3     1  UNL1        0.0645
     15 C          60.5114   87.7869   10.2414 C.2     1  UNL1        0.1504
     16 O          59.7790   88.6466   11.2286 O.2     1  UNL1       -0.2961
     17 C          61.3506   86.5875   10.5689 C.3     1  UNL1        0.0610
     18 C          62.6661   84.9245    9.6035 C.3     1  UNL1        0.0276
     19 C          63.0018   84.7829    7.4338 C.3     1  UNL1        0.0025
     20 C          63.1204   84.2292   10.0933 C.3     1  UNL1        0.1141
     21 O          64.2495   82.8734    8.7791 O.3     1  UNL1       -0.3841
     22 H          64.6874   82.1938    9.3151 H       1  UNL1        0.2103
     23 C          63.5939   81.3614   12.9696 C.2     1  UNL1       -0.0048
     24 C          64.1400   82.5219   12.1918 C.2     1  UNL1       -0.0243
     25 C          62.9834   84.7159   15.2125 C.2     1  UNL1        0.3283
     26 O          62.9581   83.2808   15.6482 O.2     1  UNL1       -0.2491
     27 C          64.0461   85.6385   15.7314 C.3     1  UNL1        0.1715
     28 S          64.5586   86.7531   14.8681 S.3     1  UNL1       -0.1003
     29 C          64.2038   88.1746   15.1895 C.ar    1  UNL1        0.0461
     30 C          63.4200   88.4902   16.4289 C.ar    1  UNL1        0.1051
     31 N          63.0652   89.9117   16.7503 N.ar    1  UNL1       -0.2405
     32 C          63.4942   91.0177   15.8323 C.ar    1  UNL1        0.1135
     33 C          64.2781   90.7022   14.5929 C.ar    1  UNL1        0.0703
     34 C          64.6329   89.2806   14.2715 C.ar    1  UNL1        0.0240
     35 N          64.7071   91.8082   13.6749 N.am    1  UNL1       -0.2815
     36 C          65.8759   92.6748   14.0397 C.2     1  UNL1        0.2425
     37 O          66.6155   92.4353   15.3225 O.2     1  UNL1       -0.2733
     38 H          64.2217   91.9653   12.8329 H       1  UNL1        0.1549
     39 C          66.3049   93.7808   13.1217 C.3     1  UNL1        0.1587
     40 N          66.9373   93.4563   11.8009 N.3     1  UNL1       -0.2649
     41 C          66.9140   94.4643   10.6903 C.3     1  UNL1        0.0750
     42 C          67.5464   94.1397    9.3694 C.3     1  UNL1        0.0466
     43 C          68.2021   92.8071    9.1590 C.3     1  UNL1        0.1133
     44 O          68.8344   92.4826    7.8381 O.3     1  UNL1       -0.3844
     45 C          68.2254   91.7991   10.2696 C.3     1  UNL1        0.0466
     46 C          67.5930   92.1236   11.5906 C.3     1  UNL1        0.0750
     47 H          68.7317   93.2365    7.2365 H       1  UNL1        0.2103
@<TRIPOS>BOND
     1    23    24    2
     2    24     2    1
     3     2     3    1
     4     2     4    1
     5     4     5    1
     6     5     1    1
     7     1    25    1
     8    25    26    2
     9    25    27    1
    10    27    28    1
    11    28    29    1
    12    29    30   ar
    13    30    31   ar
    14    31    32   ar
    15    32    33   ar
    16    33    35    1
    17    35    36   am
    18    36    37    2
    19    36    39    1
    20    39    40    1
    21    40    41    1
    22    41    42    1
    23    42    43    1
    24    43    44    1
    25    43    45    1
    26    45    46    1
    27    33    34   ar
    28     5     6    1
    29     6     7    1
    30     6     8    1
    31     8     9    1
    32     8    10    1
    33    10    11    1
    34    12    11    1
    35    12    13    1
    36    13    14    1
    37    14    15    1
    38    15    16    2
    39    17    15    1
    40    12    18    1
    41    18    19    1
    42    18    20    1
    43    20    21    1
    44    20     2    1
    45    34    29   ar
    46    17     6    1
    47    46    40    1
    48    17    12    1
    49    35    38    1
    50    44    47    1
    51    21    22    1
@<TRIPOS>MOLECULE
*****
 47 51 0 0 0
SMALL
GASTEIGER

@<TRIPOS>ATOM
      1 O          62.0225   89.4125   12.1054 O.3     1  UNL1       -0.4516
      2 C          63.9479   90.8841   14.8776 C.3     1  UNL1        0.0468
      3 C          63.9434   90.7138   16.9697 C.3     1  UNL1        0.0069
      4 C          63.4669   90.5212   14.1248 C.3     1  UNL1        0.0500
      5 C          63.5105   90.6356   13.1683 C.3     1  UNL1        0.1694
      6 C          63.8814   91.0626   11.8970 C.3     1  UNL1        0.0435
      7 C          63.5132   90.8534   10.4580 C.3     1  UNL1        0.0040
      8 C          64.2292   91.3121   12.6033 C.3     1  UNL1        0.0038
      9 C          62.3796   89.6298   13.3186 C.3     1  UNL1        0.0001
     10 C          64.5841   91.5653   13.3417 C.3     1  UNL1        0.0001
     11 C          65.1421   92.0588   13.3016 C.3     1  UNL1        0.0005
     12 C          65.7561   92.6035   13.2362 C.3     1  UNL1        0.0093
     13 C          66.7904   93.5543   12.7106 C.3     1  UNL1        0.0082
     14 C          66.6813   93.5773   11.2148 C.3     1  UNL1        0.0645
     15 C          65.5795   92.6408   10.8159 C.2     1  UNL1        0.1504
     16 O          65.1287   92.3561    9.4138 O.2     1  UNL1       -0.2961
     17 C          65.0077   92.0390   12.0652 C.3     1  UNL1        0.0610
     18 C          65.2147   92.0364   14.3859 C.3     1  UNL1        0.0276
     19 C          66.7027   93.2595   15.4488 C.3     1  UNL1        0.0025
     20 C          64.6719   91.5117   14.9857 C.3     1  UNL1        0.1141
     21 O          65.2120   91.8186   17.0962 O.3     1  UNL1       -0.3841
     22 H          64.6412   91.2722   17.6588 H       1  UNL1        0.2103
     23 C          62.9223   88.3574   16.7242 C.2     1  UNL1       -0.0048
     24 C          62.7082   89.6985   16.0873 C.2     1  UNL1       -0.0243
     25 C          60.5656   89.7576   12.1954 C.2     1  UNL1        0.3283
     26 O          59.7874   89.4101   13.4299 O.2     1  UNL1       -0.2491
     27 C          59.8867   90.4500   11.0511 C.3     1  UNL1        0.1715
     28 S          60.3230   90.1748    9.6426 S.3     1  UNL1       -0.1003
     29 C          60.2426   88.7822    9.0911 C.ar    1  UNL1        0.0461
     30 C          59.3487   88.4886    7.9229 C.ar    1  UNL1        0.1051
     31 N          59.2683   87.0960    7.3713 N.ar    1  UNL1       -0.2405
     32 C          60.0818   85.9970    7.9880 C.ar    1  UNL1        0.1135
     33 C          60.9758   86.2905    9.1562 C.ar    1  UNL1        0.0703
     34 C          61.0562   87.6831    9.7078 C.ar    1  UNL1        0.0240
     35 N          61.7893   85.1915    9.7730 N.am    1  UNL1       -0.2815
     36 C          63.0964   84.7895    9.1565 C.2     1  UNL1        0.2425
     37 O          63.5899   85.4866    7.9234 O.2     1  UNL1       -0.2733
     38 H          61.4654   84.7340   10.5823 H       1  UNL1        0.1549
     39 C          63.9100   83.6905    9.7732 C.3     1  UNL1        0.1587
     40 N          63.5065   83.1109   11.0965 N.3     1  UNL1       -0.2649
     41 C          63.0631   81.6806   11.1849 C.3     1  UNL1        0.0750
     42 C          62.6596   81.1009   12.5083 C.3     1  UNL1        0.0466
     43 C          62.6996   81.9515   13.7432 C.3     1  UNL1        0.1133
     44 O          62.2961   81.3718   15.0665 O.3     1  UNL1       -0.3844
     45 C          63.1430   83.3817   13.6547 C.3     1  UNL1        0.0466
     46 C          63.5465   83.9614   12.3314 C.3     1  UNL1        0.0750
     47 H          62.0390   80.4440   14.9482 H       1  UNL1        0.2103
@<TRIPOS>BOND
     1    23    24    2
     2    24     2    1
     3     2     3    1
     4     2     4    1
     5     4     5    1
     6     5     1    1
     7     1    25    1
     8    25    26    2
     9    25    27    1
    10    27    28    1
    11    28    29    1
    12    29    30   ar
    13    30    31   ar
    14    31    32   ar
    15    32    33   ar
    16    33    35    1
    17    35    36   am
    18    36    37    2
    19    36    39    1
    20    39    40    1
    21    40    41    1
    22    41    42    1
    23    42    43    1
    24    43    44    1
    25    43    45    1
    26    45    46    1
    27    33    34   ar
    28     5     6    1
    29     6     7    1
    30     6     8    1
    31     8     9    1
    32     8    10    1
    33    10    11    1
    34    12    11    1
    35    12    13    1
    36    13    14    1
    37    14    15    1
    38    15    16    2
    39    17    15    1
    40    12    18    1
    41    18    19    1
    42    18    20    1
    43    20    21    1
    44    20     2    1
    45    34    29   ar
    46    17     6    1
    47    46    40    1
    48    17    12    1
    49    35    38    1
    50    44    47    1
    51    21    22    1
@<TRIPOS>MOLECULE
*****
 47 51 0 0 0
SMALL
GASTEIGER

@<TRIPOS>ATOM
      1 O          62.1094   88.4203    9.3133 O.3     1  UNL1       -0.4516
      2 C          63.0336   86.3341   12.2031 C.3     1  UNL1        0.0468
      3 C          63.0203   84.2818   12.6430 C.3     1  UNL1        0.0069
      4 C          62.8030   86.9143   11.4684 C.3     1  UNL1        0.0500
      5 C          62.8294   87.8663   11.3169 C.3     1  UNL1        0.1694
      6 C          63.0170   89.2342   11.4895 C.3     1  UNL1        0.0435
      7 C          62.8451   90.5241   10.7434 C.3     1  UNL1        0.0040
      8 C          63.1828   88.6559   12.0552 C.3     1  UNL1        0.0038
      9 C          62.2771   87.3482    9.9980 C.3     1  UNL1        0.0001
     10 C          63.3520   88.0484   12.6363 C.3     1  UNL1        0.0001
     11 C          63.6243   88.2707   13.2943 C.3     1  UNL1        0.0005
     12 C          63.9241   88.5362   14.0138 C.3     1  UNL1        0.0093
     13 C          64.4313   89.3906   15.1375 C.3     1  UNL1        0.0082
     14 C          64.3860   90.8212   14.6888 C.3     1  UNL1        0.0645
     15 C          63.8509   90.8509   13.2878 C.2     1  UNL1        0.1504
     16 O          63.6385   92.0776   12.4510 O.2     1  UNL1       -0.2961
     17 C          63.5654   89.4387   12.8706 C.3     1  UNL1        0.0610
     18 C          63.6540   87.2316   13.6117 C.3     1  UNL1        0.0276
     19 C          64.3740   86.6776   15.6154 C.3     1  UNL1        0.0025
     20 C          63.3861   86.4656   13.0910 C.3     1  UNL1        0.1141
     21 O          63.6383   84.5738   14.1853 O.3     1  UNL1       -0.3841
     22 H          63.3569   83.8351   13.6231 H       1  UNL1        0.2103
     23 C          63.1266   83.9982    9.8836 C.2     1  UNL1       -0.0048
     24 C          62.4226   84.7417   10.9797 C.2     1  UNL1       -0.0243
     25 C          60.6759   88.1851    8.9398 C.2     1  UNL1        0.3283
     26 O          60.0218   86.8746    9.2635 O.2     1  UNL1       -0.2491
     27 C          59.8963   89.2603    8.2426 C.3     1  UNL1        0.1715
     28 S          59.3473   89.0172    6.8680 S.3     1  UNL1       -0.1003
     29 C          59.2076   90.1576    5.9036 C.ar    1  UNL1        0.0461
     30 C          57.8701   90.8039    5.6950 C.ar    1  UNL1        0.1051
     31 N          57.7305   91.9443    4.7307 N.ar    1  UNL1       -0.2405
     32 C          58.9283   92.4384    3.9750 C.ar    1  UNL1        0.1135
     33 C          60.2658   91.7922    4.1835 C.ar    1  UNL1        0.0703
     34 C          60.4054   90.6517    5.1479 C.ar    1  UNL1        0.0240
     35 N          61.4636   92.2863    3.4278 N.am    1  UNL1       -0.2815
     36 C          61.2994   92.8496    2.0474 C.2     1  UNL1        0.2425
     37 O          59.9375   92.9189    1.4227 O.2     1  UNL1       -0.2733
     38 H          62.3575   92.2408    3.8379 H       1  UNL1        0.1549
     39 C          62.4972   93.3437    1.2916 C.3     1  UNL1        0.1587
     40 N          62.3262   93.9599   -0.0652 N.3     1  UNL1       -0.2649
     41 C          62.3077   95.4524   -0.2143 C.3     1  UNL1        0.0750
     42 C          62.1366   96.0685   -1.5712 C.3     1  UNL1        0.0466
     43 C          61.9841   95.1922   -2.7790 C.3     1  UNL1        0.1133
     44 O          61.8130   95.8084   -4.1358 O.3     1  UNL1       -0.3844
     45 C          62.0026   93.6997   -2.6299 C.3     1  UNL1        0.0466
     46 C          62.1736   93.0835   -1.2730 C.3     1  UNL1        0.0750
     47 H          61.8233   96.7750   -4.0556 H       1  UNL1        0.2103
@<TRIPOS>BOND
     1    23    24    2
     2    24     2    1
     3     2     3    1
     4     2     4    1
     5     4     5    1
     6     5     1    1
     7     1    25    1
     8    25    26    2
     9    25    27    1
    10    27    28    1
    11    28    29    1
    12    29    30   ar
    13    30    31   ar
    14    31    32   ar
    15    32    33   ar
    16    33    35    1
    17    35    36   am
    18    36    37    2
    19    36    39    1
    20    39    40    1
    21    40    41    1
    22    41    42    1
    23    42    43    1
    24    43    44    1
    25    43    45    1
    26    45    46    1
    27    33    34   ar
    28     5     6    1
    29     6     7    1
    30     6     8    1
    31     8     9    1
    32     8    10    1
    33    10    11    1
    34    12    11    1
    35    12    13    1
    36    13    14    1
    37    14    15    1
    38    15    16    2
    39    17    15    1
    40    12    18    1
    41    18    19    1
    42    18    20    1
    43    20    21    1
    44    20     2    1
    45    34    29   ar
    46    17     6    1
    47    46    40    1
    48    17    12    1
    49    35    38    1
    50    44    47    1
    51    21    22    1
