@<TRIPOS>MOLECULE
*****
 33 37 0 0 0
SMALL
GASTEIGER

@<TRIPOS>ATOM
      1 C          63.0796   88.9683   11.6806 C.ar    1  UNL1        0.1074
      2 C          62.2984   89.6835   10.6185 C.ar    1  UNL1        0.0588
      3 S          62.7577   91.1111   10.5874 S.2     1  UNL1       -0.0508
      4 C          63.8229   91.2781   11.6302 C.ar    1  UNL1        0.1646
      5 N          64.0218   89.9538   12.3059 N.ar    1  UNL1       -0.2224
      6 C          63.4581   85.5556   13.6707 C.ar    1  UNL1        0.2416
      7 N          63.5951   87.0024   13.2992 N.ar    1  UNL1       -0.2089
      8 C          62.9427   87.5215   12.0522 C.ar    1  UNL1        0.1026
      9 C          62.1533   86.5938   11.1768 C.ar    1  UNL1        0.0224
     10 C          62.0163   85.1470   11.5484 C.ar    1  UNL1        0.0239
     11 C          62.6688   84.6279   12.7954 C.ar    1  UNL1        0.1189
     12 N          62.5319   83.1811   13.1669 N.ar    1  UNL1       -0.2826
     13 C          62.1948   82.6485   14.5281 C.ar    1  UNL1        0.1826
     14 N          62.1626   81.1512   14.4451 N.ar    1  UNL1       -0.2280
     15 C          62.4797   80.7583   13.0324 C.ar    1  UNL1        0.0786
     16 C          62.5552   79.3570   12.5029 C.3     1  UNL1        0.0538
     17 C          62.7079   82.0130   12.2426 C.ar    1  UNL1        0.0963
     18 C          63.7687   85.6373   16.2488 C.3     1  UNL1        0.2543
     19 O          64.1106   85.0365   14.9176 O.3     1  UNL1       -0.4551
     20 N          64.5598   92.5468   11.9426 N.pl3   1  UNL1       -0.2786
     21 H          64.1050   93.4153   11.8521 H       1  UNL1        0.1555
     22 C          65.9895   92.4922   12.3931 C.ar    1  UNL1        0.1276
     23 C          66.4663   92.4876   13.8153 C.ar    1  UNL1        0.0244
     24 C          67.9649   92.4252   13.8016 C.ar    1  UNL1        0.0773
     25 N          68.4143   92.3912   12.3709 N.ar    1  UNL1       -0.1728
     26 N          67.1935   92.4327   11.5004 N.ar    1  UNL1       -0.2354
     27 C          68.7267   92.4074   15.0936 C.3     1  UNL1        0.0474
     28 C          67.9898   92.4520   16.3993 C.3     1  UNL1        0.0067
     29 C          66.4911   92.5144   16.4130 C.3     1  UNL1        0.0052
     30 C          65.7294   92.5322   15.1210 C.3     1  UNL1        0.0305
     31 C          67.1791   92.4172   10.0005 C.3     1  UNL1        0.1668
     32 C          68.3526   92.9510    9.2337 C.3     1  UNL1        0.2195
     33 F          69.0458   92.0846    8.2244 F       1  UNL1       -0.2321
@<TRIPOS>BOND
     1    18    19    1
     2    19     6    1
     3     6     7   ar
     4     7     8   ar
     5     8     1    1
     6     1     2   ar
     7     2     3   ar
     8     3     4   ar
     9     4    20    1
    10    20    22    1
    11    22    23   ar
    12    23    24   ar
    13    24    25   ar
    14    25    26   ar
    15    26    31    1
    16    31    32    1
    17    32    33    1
    18    24    27    1
    19    27    28    1
    20    28    29    1
    21    29    30    1
    22     4     5   ar
    23     8     9   ar
    24     9    10   ar
    25    10    11   ar
    26    11    12    1
    27    12    13   ar
    28    13    14   ar
    29    14    15   ar
    30    15    16    1
    31    15    17   ar
    32    11     6   ar
    33    17    12   ar
    34     5     1   ar
    35    26    22   ar
    36    30    23    1
    37    20    21    1
@<TRIPOS>MOLECULE
*****
 33 37 0 0 0
SMALL
GASTEIGER

@<TRIPOS>ATOM
      1 C          64.2105   89.2287   14.1457 C.ar    1  UNL1        0.1074
      2 C          63.9115   89.1091   15.6107 C.ar    1  UNL1        0.0588
      3 S          63.4633   87.7030   15.8790 S.2     1  UNL1       -0.0508
      4 C          63.4853   86.9536   14.5798 C.ar    1  UNL1        0.1646
      5 N          63.9470   87.8965   13.5086 N.ar    1  UNL1       -0.2224
      6 C          66.3292   92.4724   13.2859 C.ar    1  UNL1        0.2416
      7 N          65.8509   91.2374   13.9902 N.ar    1  UNL1       -0.2089
      8 C          64.6889   90.4636   13.4414 C.ar    1  UNL1        0.1026
      9 C          64.0053   90.9248   12.1884 C.ar    1  UNL1        0.0224
     10 C          64.4837   92.1599   11.4842 C.ar    1  UNL1        0.0239
     11 C          65.6457   92.9336   12.0329 C.ar    1  UNL1        0.1189
     12 N          66.1241   94.1686   11.3287 N.ar    1  UNL1       -0.2826
     13 C          66.1362   95.5577   11.8948 C.ar    1  UNL1        0.1826
     14 N          66.6939   96.4789   10.8507 N.ar    1  UNL1       -0.2280
     15 C          67.0266   95.6592    9.6392 C.ar    1  UNL1        0.0786
     16 C          67.6091   96.1766    8.3574 C.3     1  UNL1        0.0538
     17 C          66.6743   94.2313    9.9347 C.ar    1  UNL1        0.0963
     18 C          67.7004   93.3344   15.3173 C.3     1  UNL1        0.2543
     19 O          67.4912   93.2461   13.8346 O.3     1  UNL1       -0.4551
     20 N          63.1111   85.5139   14.3859 N.pl3   1  UNL1       -0.2786
     21 H          62.8127   84.9751   15.1539 H       1  UNL1        0.1555
     22 C          63.1916   84.8953   13.0218 C.ar    1  UNL1        0.1276
     23 C          62.8055   85.5542   11.7307 C.ar    1  UNL1        0.0244
     24 C          63.0476   84.5753   10.6202 C.ar    1  UNL1        0.0773
     25 N          63.5834   83.3115   11.2250 N.ar    1  UNL1       -0.1728
     26 N          63.6724   83.5092   12.7092 N.ar    1  UNL1       -0.2354
     27 C          62.7489   84.9612    9.2019 C.3     1  UNL1        0.0474
     28 C          62.2081   86.3260    8.8940 C.3     1  UNL1        0.0067
     29 C          61.9660   87.3049   10.0045 C.3     1  UNL1        0.0052
     30 C          62.2647   86.9189   11.4229 C.3     1  UNL1        0.0305
     31 C          64.1571   82.4984   13.7059 C.3     1  UNL1        0.1668
     32 C          63.6002   81.1057   13.6930 C.3     1  UNL1        0.2195
     33 F          62.3365   80.8102   12.9409 F       1  UNL1       -0.2321
@<TRIPOS>BOND
     1    18    19    1
     2    19     6    1
     3     6     7   ar
     4     7     8   ar
     5     8     1    1
     6     1     2   ar
     7     2     3   ar
     8     3     4   ar
     9     4    20    1
    10    20    22    1
    11    22    23   ar
    12    23    24   ar
    13    24    25   ar
    14    25    26   ar
    15    26    31    1
    16    31    32    1
    17    32    33    1
    18    24    27    1
    19    27    28    1
    20    28    29    1
    21    29    30    1
    22     4     5   ar
    23     8     9   ar
    24     9    10   ar
    25    10    11   ar
    26    11    12    1
    27    12    13   ar
    28    13    14   ar
    29    14    15   ar
    30    15    16    1
    31    15    17   ar
    32    11     6   ar
    33    17    12   ar
    34     5     1   ar
    35    26    22   ar
    36    30    23    1
    37    20    21    1
@<TRIPOS>MOLECULE
*****
 33 37 0 0 0
SMALL
GASTEIGER

@<TRIPOS>ATOM
      1 C          62.5878   89.2280   11.8948 C.ar    1  UNL1        0.1074
      2 C          61.2696   89.7491   11.4041 C.ar    1  UNL1        0.0588
      3 S          60.5682   88.6337   10.6871 S.2     1  UNL1       -0.0508
      4 C          61.4530   87.4233   10.7347 C.ar    1  UNL1        0.1646
      5 N          62.7011   87.7906   11.4811 N.ar    1  UNL1       -0.2224
      6 C          65.1509   92.0887   12.8933 C.ar    1  UNL1        0.2416
      7 N          64.1260   91.3093   12.1238 N.ar    1  UNL1       -0.2089
      8 C          63.6127   90.0074   12.6642 C.ar    1  UNL1        0.1026
      9 C          64.1244   89.4851   13.9739 C.ar    1  UNL1        0.0224
     10 C          65.1494   90.2647   14.7433 C.ar    1  UNL1        0.0239
     11 C          65.6626   91.5665   14.2029 C.ar    1  UNL1        0.1189
     12 N          66.6875   92.3459   14.9723 N.ar    1  UNL1       -0.2826
     13 C          66.4833   92.9885   16.3123 C.ar    1  UNL1        0.1826
     14 N          67.7661   93.6594   16.7049 N.ar    1  UNL1       -0.2280
     15 C          68.7633   93.4315   15.6076 C.ar    1  UNL1        0.0786
     16 C          70.1784   93.9281   15.5851 C.3     1  UNL1        0.0538
     17 C          68.0965   92.6197   14.5368 C.ar    1  UNL1        0.0963
     18 C          66.3857   93.4245   11.0383 C.3     1  UNL1        0.2543
     19 O          65.6641   93.3905   12.3529 O.3     1  UNL1       -0.4551
     20 N          61.1438   86.0812   10.1402 N.pl3   1  UNL1       -0.2786
     21 H          60.2499   85.9013    9.7692 H       1  UNL1        0.1555
     22 C          62.1968   85.0133   10.1112 C.ar    1  UNL1        0.1276
     23 C          62.6924   84.2316   11.2916 C.ar    1  UNL1        0.0244
     24 C          63.7409   83.2747   10.8066 C.ar    1  UNL1        0.0773
     25 N          63.8932   83.4651    9.3265 N.ar    1  UNL1       -0.1728
     26 N          62.9389   84.5396    8.8967 N.ar    1  UNL1       -0.2354
     27 C          64.4215   82.3537   11.7754 C.3     1  UNL1        0.0474
     28 C          64.0535   82.3895   13.2291 C.3     1  UNL1        0.0067
     29 C          63.0051   83.3464   13.7140 C.3     1  UNL1        0.0052
     30 C          62.3245   84.2674   12.7453 C.3     1  UNL1        0.0305
     31 C          62.7584   85.0507    7.4981 C.3     1  UNL1        0.1668
     32 C          61.4953   84.7501    6.7469 C.3     1  UNL1        0.2195
     33 F          60.2040   85.3884    7.1652 F       1  UNL1       -0.2321
@<TRIPOS>BOND
     1    18    19    1
     2    19     6    1
     3     6     7   ar
     4     7     8   ar
     5     8     1    1
     6     1     2   ar
     7     2     3   ar
     8     3     4   ar
     9     4    20    1
    10    20    22    1
    11    22    23   ar
    12    23    24   ar
    13    24    25   ar
    14    25    26   ar
    15    26    31    1
    16    31    32    1
    17    32    33    1
    18    24    27    1
    19    27    28    1
    20    28    29    1
    21    29    30    1
    22     4     5   ar
    23     8     9   ar
    24     9    10   ar
    25    10    11   ar
    26    11    12    1
    27    12    13   ar
    28    13    14   ar
    29    14    15   ar
    30    15    16    1
    31    15    17   ar
    32    11     6   ar
    33    17    12   ar
    34     5     1   ar
    35    26    22   ar
    36    30    23    1
    37    20    21    1
@<TRIPOS>MOLECULE
*****
 33 37 0 0 0
SMALL
GASTEIGER

@<TRIPOS>ATOM
      1 C          64.2263   89.5068   14.3775 C.ar    1  UNL1        0.1074
      2 C          63.6170   89.5269   15.7480 C.ar    1  UNL1        0.0588
      3 S          63.2904   88.1138   16.1308 S.2     1  UNL1       -0.0508
      4 C          63.6978   87.2204   14.9969 C.ar    1  UNL1        0.1646
      5 N          64.2762   88.0813   13.9133 N.ar    1  UNL1       -0.2224
      6 C          66.2435   92.7843   13.4087 C.ar    1  UNL1        0.2416
      7 N          65.7678   91.5888   14.1797 N.ar    1  UNL1       -0.2089
      8 C          64.7021   90.7023   13.6066 C.ar    1  UNL1        0.1026
      9 C          64.1122   91.0113   12.2625 C.ar    1  UNL1        0.0224
     10 C          64.5880   92.2069   11.4915 C.ar    1  UNL1        0.0239
     11 C          65.6537   93.0934   12.0647 C.ar    1  UNL1        0.1189
     12 N          66.1295   94.2889   11.2938 N.ar    1  UNL1       -0.2826
     13 C          66.1616   95.7035   11.7917 C.ar    1  UNL1        0.1826
     14 N          66.7086   96.5686   10.6953 N.ar    1  UNL1       -0.2280
     15 C          67.0147   95.6886    9.5195 C.ar    1  UNL1        0.0786
     16 C          67.5795   96.1387    8.2049 C.3     1  UNL1        0.0538
     17 C          66.6567   94.2797    9.8895 C.ar    1  UNL1        0.0963
     18 C          67.8451   93.4062   15.3577 C.3     1  UNL1        0.2543
     19 O          67.3092   93.6708   13.9819 O.3     1  UNL1       -0.4551
     20 N          63.5523   85.7280   14.9540 N.pl3   1  UNL1       -0.2786
     21 H          63.6686   85.1983   15.7757 H       1  UNL1        0.1555
     22 C          63.2297   85.0428   13.6593 C.ar    1  UNL1        0.1276
     23 C          63.1963   83.5607   13.4306 C.ar    1  UNL1        0.0244
     24 C          62.8298   83.3212   11.9959 C.ar    1  UNL1        0.0773
     25 N          62.6365   84.6554   11.3380 N.ar    1  UNL1       -0.1728
     26 N          62.8837   85.7193   12.3660 N.ar    1  UNL1       -0.2354
     27 C          62.7193   81.9194   11.4740 C.3     1  UNL1        0.0474
     28 C          62.9754   80.7569   12.3867 C.3     1  UNL1        0.0067
     29 C          63.3419   80.9964   13.8214 C.3     1  UNL1        0.0052
     30 C          63.4524   82.3983   14.3433 C.3     1  UNL1        0.0305
     31 C          62.7996   87.1999   12.1404 C.3     1  UNL1        0.1668
     32 C          62.0065   87.7389   10.9870 C.3     1  UNL1        0.2195
     33 F          62.4623   87.4870    9.5804 F       1  UNL1       -0.2321
@<TRIPOS>BOND
     1    18    19    1
     2    19     6    1
     3     6     7   ar
     4     7     8   ar
     5     8     1    1
     6     1     2   ar
     7     2     3   ar
     8     3     4   ar
     9     4    20    1
    10    20    22    1
    11    22    23   ar
    12    23    24   ar
    13    24    25   ar
    14    25    26   ar
    15    26    31    1
    16    31    32    1
    17    32    33    1
    18    24    27    1
    19    27    28    1
    20    28    29    1
    21    29    30    1
    22     4     5   ar
    23     8     9   ar
    24     9    10   ar
    25    10    11   ar
    26    11    12    1
    27    12    13   ar
    28    13    14   ar
    29    14    15   ar
    30    15    16    1
    31    15    17   ar
    32    11     6   ar
    33    17    12   ar
    34     5     1   ar
    35    26    22   ar
    36    30    23    1
    37    20    21    1
@<TRIPOS>MOLECULE
*****
 33 37 0 0 0
SMALL
GASTEIGER

@<TRIPOS>ATOM
      1 C          62.3618   88.7469   11.0424 C.ar    1  UNL1        0.1074
      2 C          61.1181   89.5836   11.0978 C.ar    1  UNL1        0.0588
      3 S          61.5011   91.0033   10.8016 S.2     1  UNL1       -0.0508
      4 C          62.9815   91.0439   10.5632 C.ar    1  UNL1        0.1646
      5 N          63.5134   89.6494   10.7120 N.ar    1  UNL1       -0.2224
      6 C          63.1804   85.2580   12.7477 C.ar    1  UNL1        0.2416
      7 N          63.1022   86.7376   12.5138 N.ar    1  UNL1       -0.2089
      8 C          62.4400   87.2673   11.2764 C.ar    1  UNL1        0.1026
      9 C          61.8561   86.3174   10.2730 C.ar    1  UNL1        0.0224
     10 C          61.9344   84.8378   10.5070 C.ar    1  UNL1        0.0239
     11 C          62.5966   84.3081   11.7444 C.ar    1  UNL1        0.1189
     12 N          62.6748   82.8286   11.9784 N.ar    1  UNL1       -0.2826
     13 C          63.2629   81.8173   11.0394 C.ar    1  UNL1        0.1826
     14 N          63.1303   80.4643   11.6730 N.ar    1  UNL1       -0.2280
     15 C          62.4603   80.6392   13.0037 C.ar    1  UNL1        0.0786
     16 C          62.1298   79.5450   13.9751 C.3     1  UNL1        0.0538
     17 C          62.1788   82.1005   13.1924 C.ar    1  UNL1        0.0963
     18 C          63.4849   85.2938   15.3277 C.3     1  UNL1        0.2543
     19 O          63.8425   84.7284   13.9851 O.3     1  UNL1       -0.4551
     20 N          63.7884   92.2649   10.2338 N.pl3   1  UNL1       -0.2786
     21 H          63.5344   92.8313    9.4696 H       1  UNL1        0.1555
     22 C          64.9821   92.6227   11.0686 C.ar    1  UNL1        0.1276
     23 C          65.2277   92.1945   12.4851 C.ar    1  UNL1        0.0244
     24 C          66.5372   92.7786   12.9254 C.ar    1  UNL1        0.0773
     25 N          67.1010   93.5678   11.7811 N.ar    1  UNL1       -0.1728
     26 N          66.1399   93.4714   10.6335 N.ar    1  UNL1       -0.2354
     27 C          67.0472   92.5164   14.3115 C.3     1  UNL1        0.0474
     28 C          66.2476   91.6701   15.2572 C.3     1  UNL1        0.0067
     29 C          64.9380   91.0860   14.8168 C.3     1  UNL1        0.0052
     30 C          64.4281   91.3482   13.4307 C.3     1  UNL1        0.0305
     31 C          66.3071   94.1114    9.2873 C.3     1  UNL1        0.1668
     32 C          66.6472   95.5688    9.1867 C.3     1  UNL1        0.2195
     33 F          67.8465   96.0065    8.3992 F       1  UNL1       -0.2321
@<TRIPOS>BOND
     1    18    19    1
     2    19     6    1
     3     6     7   ar
     4     7     8   ar
     5     8     1    1
     6     1     2   ar
     7     2     3   ar
     8     3     4   ar
     9     4    20    1
    10    20    22    1
    11    22    23   ar
    12    23    24   ar
    13    24    25   ar
    14    25    26   ar
    15    26    31    1
    16    31    32    1
    17    32    33    1
    18    24    27    1
    19    27    28    1
    20    28    29    1
    21    29    30    1
    22     4     5   ar
    23     8     9   ar
    24     9    10   ar
    25    10    11   ar
    26    11    12    1
    27    12    13   ar
    28    13    14   ar
    29    14    15   ar
    30    15    16    1
    31    15    17   ar
    32    11     6   ar
    33    17    12   ar
    34     5     1   ar
    35    26    22   ar
    36    30    23    1
    37    20    21    1
@<TRIPOS>MOLECULE
*****
 33 37 0 0 0
SMALL
GASTEIGER

@<TRIPOS>ATOM
      1 C          59.7388   91.2731    4.6872 C.ar    1  UNL1        0.1074
      2 C          58.2876   91.5803    4.9100 C.ar    1  UNL1        0.0588
      3 S          57.7581   90.6078    5.9219 S.2     1  UNL1       -0.0508
      4 C          58.8820   89.6996    6.3244 C.ar    1  UNL1        0.1646
      5 N          60.1061   90.1108    5.5613 N.ar    1  UNL1       -0.2224
      6 C          61.0820   93.9061    2.0389 C.ar    1  UNL1        0.2416
      7 N          60.1599   93.1787    2.9720 N.ar    1  UNL1       -0.2089
      8 C          60.6607   92.0006    3.7540 C.ar    1  UNL1        0.1026
      9 C          62.0834   91.5500    3.6028 C.ar    1  UNL1        0.0224
     10 C          63.0054   92.2775    2.6696 C.ar    1  UNL1        0.0239
     11 C          62.5046   93.4556    1.8877 C.ar    1  UNL1        0.1189
     12 N          63.4266   94.1830    0.9545 N.ar    1  UNL1       -0.2826
     13 C          63.6122   93.8930   -0.5055 C.ar    1  UNL1        0.1826
     14 N          64.6250   94.8589   -1.0449 N.ar    1  UNL1       -0.2280
     15 C          65.0656   95.7460    0.0818 C.ar    1  UNL1        0.0786
     16 C          66.0703   96.8558   -0.0110 C.3     1  UNL1        0.0538
     17 C          64.3248   95.3282    1.3175 C.ar    1  UNL1        0.0963
     18 C          60.1094   96.3144    1.9738 C.3     1  UNL1        0.2543
     19 O          60.5812   95.0841    1.2569 O.3     1  UNL1       -0.4551
     20 N          58.7968   88.5772    7.3159 N.pl3   1  UNL1       -0.2786
     21 H          57.9462   88.0990    7.4462 H       1  UNL1        0.1555
     22 C          60.0076   88.1836    8.1090 C.ar    1  UNL1        0.1276
     23 C          60.8349   86.9498    7.9010 C.ar    1  UNL1        0.0244
     24 C          61.9423   86.9582    8.9128 C.ar    1  UNL1        0.0773
     25 N          61.7993   88.1973    9.7461 N.ar    1  UNL1       -0.1728
     26 N          60.6036   88.9546    9.2493 N.ar    1  UNL1       -0.2354
     27 C          62.9377   85.8367    8.9446 C.3     1  UNL1        0.0474
     28 C          62.8258   84.7066    7.9646 C.3     1  UNL1        0.0067
     29 C          61.7185   84.6981    6.9528 C.3     1  UNL1        0.0052
     30 C          60.7230   85.8197    6.9210 C.3     1  UNL1        0.0305
     31 C          60.0935   90.2546    9.7968 C.3     1  UNL1        0.1668
     32 C          59.7348   90.3678   11.2488 C.3     1  UNL1        0.2195
     33 F          58.5602   91.2009   11.6685 F       1  UNL1       -0.2321
@<TRIPOS>BOND
     1    18    19    1
     2    19     6    1
     3     6     7   ar
     4     7     8   ar
     5     8     1    1
     6     1     2   ar
     7     2     3   ar
     8     3     4   ar
     9     4    20    1
    10    20    22    1
    11    22    23   ar
    12    23    24   ar
    13    24    25   ar
    14    25    26   ar
    15    26    31    1
    16    31    32    1
    17    32    33    1
    18    24    27    1
    19    27    28    1
    20    28    29    1
    21    29    30    1
    22     4     5   ar
    23     8     9   ar
    24     9    10   ar
    25    10    11   ar
    26    11    12    1
    27    12    13   ar
    28    13    14   ar
    29    14    15   ar
    30    15    16    1
    31    15    17   ar
    32    11     6   ar
    33    17    12   ar
    34     5     1   ar
    35    26    22   ar
    36    30    23    1
    37    20    21    1
@<TRIPOS>MOLECULE
*****
 33 37 0 0 0
SMALL
GASTEIGER

@<TRIPOS>ATOM
      1 C          59.7845   91.1332    4.8000 C.ar    1  UNL1        0.1074
      2 C          58.3590   91.4834    5.1089 C.ar    1  UNL1        0.0588
      3 S          57.8379   90.4790    6.0935 S.2     1  UNL1       -0.0508
      4 C          58.9412   89.5080    6.3931 C.ar    1  UNL1        0.1646
      5 N          60.1443   89.9123    5.5936 N.ar    1  UNL1       -0.2224
      6 C          61.0682   93.7670    2.1231 C.ar    1  UNL1        0.2416
      7 N          60.1616   93.0264    3.0610 N.ar    1  UNL1       -0.2089
      8 C          60.6909   91.8738    3.8621 C.ar    1  UNL1        0.1026
      9 C          62.1268   91.4620    3.7252 C.ar    1  UNL1        0.0224
     10 C          63.0333   92.2027    2.7872 C.ar    1  UNL1        0.0239
     11 C          62.5039   93.3552    1.9862 C.ar    1  UNL1        0.1189
     12 N          63.4104   94.0958    1.0483 N.ar    1  UNL1       -0.2826
     13 C          63.6354   93.7731   -0.3993 C.ar    1  UNL1        0.1826
     14 N          64.6151   94.7670   -0.9490 N.ar    1  UNL1       -0.2280
     15 C          64.9957   95.7041    0.1588 C.ar    1  UNL1        0.0786
     16 C          65.9528   96.8541    0.0511 C.3     1  UNL1        0.0538
     17 C          64.2511   95.2892    1.3932 C.ar    1  UNL1        0.0963
     18 C          60.3292   96.2534    1.9753 C.3     1  UNL1        0.2543
     19 O          60.5388   94.9194    1.3221 O.3     1  UNL1       -0.4551
     20 N          58.8564   88.3380    7.3280 N.pl3   1  UNL1       -0.2786
     21 H          58.0331   87.7996    7.3694 H       1  UNL1        0.1555
     22 C          60.0258   87.9883    8.1998 C.ar    1  UNL1        0.1276
     23 C          60.5842   88.8329    9.3065 C.ar    1  UNL1        0.0244
     24 C          61.7457   88.0992    9.9087 C.ar    1  UNL1        0.0773
     25 N          61.9051   86.8011    9.1741 N.ar    1  UNL1       -0.1728
     26 N          60.8422   86.7325    8.1180 N.ar    1  UNL1       -0.2354
     27 C          62.5081   88.7080   11.0481 C.3     1  UNL1        0.0474
     28 C          62.1090   90.0504   11.5852 C.3     1  UNL1        0.0067
     29 C          60.9475   90.7840   10.9831 C.3     1  UNL1        0.0052
     30 C          60.1851   90.1753    9.8437 C.3     1  UNL1        0.0305
     31 C          60.6325   85.6060    7.1500 C.3     1  UNL1        0.1668
     32 C          61.8122   84.8633    6.5966 C.3     1  UNL1        0.2195
     33 F          61.6331   83.9272    5.4383 F       1  UNL1       -0.2321
@<TRIPOS>BOND
     1    18    19    1
     2    19     6    1
     3     6     7   ar
     4     7     8   ar
     5     8     1    1
     6     1     2   ar
     7     2     3   ar
     8     3     4   ar
     9     4    20    1
    10    20    22    1
    11    22    23   ar
    12    23    24   ar
    13    24    25   ar
    14    25    26   ar
    15    26    31    1
    16    31    32    1
    17    32    33    1
    18    24    27    1
    19    27    28    1
    20    28    29    1
    21    29    30    1
    22     4     5   ar
    23     8     9   ar
    24     9    10   ar
    25    10    11   ar
    26    11    12    1
    27    12    13   ar
    28    13    14   ar
    29    14    15   ar
    30    15    16    1
    31    15    17   ar
    32    11     6   ar
    33    17    12   ar
    34     5     1   ar
    35    26    22   ar
    36    30    23    1
    37    20    21    1
@<TRIPOS>MOLECULE
*****
 33 37 0 0 0
SMALL
GASTEIGER

@<TRIPOS>ATOM
      1 C          62.9197   88.8217   12.0010 C.ar    1  UNL1        0.1074
      2 C          61.8766   89.7128   11.3945 C.ar    1  UNL1        0.0588
      3 S          62.3333   91.1332   11.5497 S.2     1  UNL1       -0.0508
      4 C          63.6586   91.1198   12.2521 C.ar    1  UNL1        0.1646
      5 N          64.0210   89.6912   12.5310 N.ar    1  UNL1       -0.2224
      6 C          63.4226   85.1059   13.3011 C.ar    1  UNL1        0.2416
      7 N          63.4722   86.6037   13.2361 N.ar    1  UNL1       -0.2089
      8 C          62.8701   87.3240   12.0661 C.ar    1  UNL1        0.1026
      9 C          62.2184   86.5464   10.9612 C.ar    1  UNL1        0.0224
     10 C          62.1689   85.0485   11.0264 C.ar    1  UNL1        0.0239
     11 C          62.7709   84.3284   12.1963 C.ar    1  UNL1        0.1189
     12 N          62.7214   82.8306   12.2614 N.ar    1  UNL1       -0.2826
     13 C          63.2342   81.8852   11.2158 C.ar    1  UNL1        0.1826
     14 N          62.9800   80.4856   11.6917 N.ar    1  UNL1       -0.2280
     15 C          62.3101   80.5660   13.0315 C.ar    1  UNL1        0.0786
     16 C          61.8763   79.4015   13.8715 C.3     1  UNL1        0.0538
     17 C          62.1503   82.0153   13.3835 C.ar    1  UNL1        0.0963
     18 C          63.3146   84.3764   15.7924 C.3     1  UNL1        0.2543
     19 O          64.0246   84.3857   14.4711 O.3     1  UNL1       -0.4551
     20 N          64.4778   92.3237   12.6123 N.pl3   1  UNL1       -0.2786
     21 H          64.0512   93.0974   13.0467 H       1  UNL1        0.1555
     22 C          65.9470   92.3488   12.3108 C.ar    1  UNL1        0.1276
     23 C          66.5790   92.8514   11.0467 C.ar    1  UNL1        0.0244
     24 C          68.0647   92.6889   11.1750 C.ar    1  UNL1        0.0773
     25 N          68.3507   92.0860   12.5183 N.ar    1  UNL1       -0.1728
     26 N          67.0419   91.8758   13.2203 N.ar    1  UNL1       -0.2354
     27 C          68.9651   93.1110   10.0520 C.3     1  UNL1        0.0474
     28 C          68.3798   93.6956    8.8007 C.3     1  UNL1        0.0067
     29 C          66.8942   93.8580    8.6724 C.3     1  UNL1        0.0052
     30 C          65.9938   93.4359    9.7954 C.3     1  UNL1        0.0305
     31 C          66.8600   91.2946   14.5911 C.3     1  UNL1        0.1668
     32 C          66.9398   92.1812   15.7983 C.3     1  UNL1        0.2195
     33 F          68.0773   92.0319   16.7647 F       1  UNL1       -0.2321
@<TRIPOS>BOND
     1    18    19    1
     2    19     6    1
     3     6     7   ar
     4     7     8   ar
     5     8     1    1
     6     1     2   ar
     7     2     3   ar
     8     3     4   ar
     9     4    20    1
    10    20    22    1
    11    22    23   ar
    12    23    24   ar
    13    24    25   ar
    14    25    26   ar
    15    26    31    1
    16    31    32    1
    17    32    33    1
    18    24    27    1
    19    27    28    1
    20    28    29    1
    21    29    30    1
    22     4     5   ar
    23     8     9   ar
    24     9    10   ar
    25    10    11   ar
    26    11    12    1
    27    12    13   ar
    28    13    14   ar
    29    14    15   ar
    30    15    16    1
    31    15    17   ar
    32    11     6   ar
    33    17    12   ar
    34     5     1   ar
    35    26    22   ar
    36    30    23    1
    37    20    21    1
@<TRIPOS>MOLECULE
*****
 33 37 0 0 0
SMALL
GASTEIGER

@<TRIPOS>ATOM
      1 C          59.2203   90.3183    6.1298 C.ar    1  UNL1        0.1074
      2 C          57.7724   90.4668    5.7672 C.ar    1  UNL1        0.0588
      3 S          57.6612   91.5531    4.7387 S.2     1  UNL1       -0.0508
      4 C          59.0404   92.0758    4.4657 C.ar    1  UNL1        0.1646
      5 N          60.0040   91.3126    5.3254 N.ar    1  UNL1       -0.2224
      6 C          61.1947   88.8680    9.2521 C.ar    1  UNL1        0.2416
      7 N          60.6297   89.8404    8.2594 N.ar    1  UNL1       -0.2089
      8 C          59.7853   89.3460    7.1224 C.ar    1  UNL1        0.1026
      9 C          59.5059   87.8793    6.9782 C.ar    1  UNL1        0.0224
     10 C          60.0709   86.9070    7.9709 C.ar    1  UNL1        0.0239
     11 C          60.9153   87.4014    9.1079 C.ar    1  UNL1        0.1189
     12 N          61.4803   86.4291   10.1005 N.ar    1  UNL1       -0.2826
     13 C          61.2245   86.4293   11.5787 C.ar    1  UNL1        0.1826
     14 N          61.9864   85.2863   12.1810 N.ar    1  UNL1       -0.2280
     15 C          62.7130   84.5795   11.0753 C.ar    1  UNL1        0.0786
     16 C          63.5971   83.3775   11.2285 C.3     1  UNL1        0.0538
     17 C          62.4001   85.2859    9.7894 C.ar    1  UNL1        0.0963
     18 C          62.5773   90.7624   10.3700 C.3     1  UNL1        0.2543
     19 O          62.0390   89.3624   10.3890 O.3     1  UNL1       -0.4551
     20 N          59.3941   93.1697    3.5021 N.pl3   1  UNL1       -0.2786
     21 H          59.1490   94.1016    3.7038 H       1  UNL1        0.1555
     22 C          60.1212   92.8436    2.2312 C.ar    1  UNL1        0.1276
     23 C          59.5660   92.9615    0.8427 C.ar    1  UNL1        0.0244
     24 C          60.6327   92.5332   -0.1209 C.ar    1  UNL1        0.0773
     25 N          61.8472   92.1506    0.6721 N.ar    1  UNL1       -0.1728
     26 N          61.5310   92.3425    2.1258 N.ar    1  UNL1       -0.2354
     27 C          60.3604   92.5469   -1.5959 C.3     1  UNL1        0.0474
     28 C          59.0214   92.9889   -2.1072 C.3     1  UNL1        0.0067
     29 C          57.9546   93.4172   -1.1436 C.3     1  UNL1        0.0052
     30 C          58.2269   93.4035    0.3314 C.3     1  UNL1        0.0305
     31 C          62.4613   92.0794    3.2726 C.3     1  UNL1        0.1668
     32 C          63.5537   91.0608    3.1338 C.3     1  UNL1        0.2195
     33 F          63.2256   89.5979    3.1815 F       1  UNL1       -0.2321
@<TRIPOS>BOND
     1    18    19    1
     2    19     6    1
     3     6     7   ar
     4     7     8   ar
     5     8     1    1
     6     1     2   ar
     7     2     3   ar
     8     3     4   ar
     9     4    20    1
    10    20    22    1
    11    22    23   ar
    12    23    24   ar
    13    24    25   ar
    14    25    26   ar
    15    26    31    1
    16    31    32    1
    17    32    33    1
    18    24    27    1
    19    27    28    1
    20    28    29    1
    21    29    30    1
    22     4     5   ar
    23     8     9   ar
    24     9    10   ar
    25    10    11   ar
    26    11    12    1
    27    12    13   ar
    28    13    14   ar
    29    14    15   ar
    30    15    16    1
    31    15    17   ar
    32    11     6   ar
    33    17    12   ar
    34     5     1   ar
    35    26    22   ar
    36    30    23    1
    37    20    21    1
