@<TRIPOS>MOLECULE
*****
 49 52 0 0 0
SMALL
GASTEIGER

@<TRIPOS>ATOM
      1 C          62.7234   86.2266   10.6238 C.3     1  UNL1        0.0760
      2 C          61.1142   88.1782   11.2170 C.2     1  UNL1        0.2403
      3 O          60.0361   87.5401   10.3920 O.2     1  UNL1       -0.2733
      4 N          62.4578   87.5214   11.3329 N.am    1  UNL1       -0.3043
      5 H          63.1654   87.9403   11.8743 H       1  UNL1        0.1494
      6 C          60.8486   89.4731   11.9260 C.3     1  UNL1        0.1496
      7 N          61.9918   90.2819   12.4637 N.am    1  UNL1       -0.2824
      8 C          63.0109   90.8565   11.5249 C.2     1  UNL1        0.3046
      9 O          62.8868   90.6222   10.0484 O.2     1  UNL1       -0.2526
     10 N          64.1540   91.6653   12.0624 N.am    1  UNL1       -0.2567
     11 C          65.1731   92.2398   11.1236 C.3     1  UNL1        0.1168
     12 H          62.0732   90.4356   13.4327 H       1  UNL1        0.1514
     13 C          64.2781   91.8995   13.5388 C.3     1  UNL1        0.1414
     14 C          65.6092   92.2538   14.1328 C.ar    1  UNL1        0.0862
     15 C          66.6542   91.2830   14.5968 C.ar    1  UNL1        0.0533
     16 S          67.8198   92.0704   15.1177 S.2     1  UNL1       -0.0642
     17 C          67.4951   93.5280   14.9757 C.ar    1  UNL1        0.1342
     18 N          66.1289   93.6413   14.3669 N.ar    1  UNL1       -0.2389
     19 C          59.0143   91.2579   11.4796 C.3     1  UNL1        0.0022
     20 C          59.4400   89.9591   12.0975 C.3     1  UNL1        0.0270
     21 C          58.4570   89.1463   12.8869 C.3     1  UNL1        0.0022
     22 C          63.2131   86.2346    9.2060 C.3     1  UNL1        0.0459
     23 C          62.3698   85.6391    8.1178 C.ar    1  UNL1       -0.0205
     24 C          62.9947   84.7432    7.0899 C.ar    1  UNL1       -0.0042
     25 C          62.1513   84.1477    6.0017 C.ar    1  UNL1       -0.0003
     26 C          60.6830   84.4482    5.9414 C.ar    1  UNL1       -0.0000
     27 C          60.0580   85.3442    6.9694 C.ar    1  UNL1       -0.0003
     28 C          60.9013   85.9397    8.0576 C.ar    1  UNL1       -0.0042
     29 C          62.4991   84.9237   11.3324 C.3     1  UNL1        0.0216
     30 C          62.5078   84.8742   12.8316 C.3     1  UNL1        0.0217
     31 C          63.7012   84.3267   13.5570 C.3     1  UNL1        0.0792
     32 N          63.9399   82.8463   13.5979 N.am    1  UNL1       -0.2720
     33 C          62.9653   81.9486   14.3011 C.2     1  UNL1        0.4019
     34 O          61.7522   82.5313   14.9635 O.2     1  UNL1       -0.2264
     35 H          64.7361   82.4639   13.1631 H       1  UNL1        0.1527
     36 O          63.2040   80.4683   14.3419 O.3     1  UNL1       -0.4291
     37 C          62.4782   79.5650   13.3895 C.3     1  UNL1        0.2447
     38 C          62.6910   79.7069   11.9115 C.ar    1  UNL1        0.0714
     39 C          62.9588   80.9878   11.1782 C.ar    1  UNL1        0.1053
     40 N          63.1068   80.6654    9.7208 N.ar    1  UNL1       -0.2350
     41 C          62.9304   79.1852    9.5533 C.ar    1  UNL1        0.1343
     42 S          62.6735   78.5929   10.9072 S.2     1  UNL1       -0.0652
     43 C          64.6557   85.2594   14.2416 C.3     1  UNL1        0.0460
     44 C          64.1317   86.3619   15.1135 C.ar    1  UNL1       -0.0205
     45 C          63.4493   86.0341   16.4083 C.ar    1  UNL1       -0.0042
     46 C          62.9254   87.1365   17.2801 C.ar    1  UNL1       -0.0003
     47 C          63.0838   88.5669   16.8569 C.ar    1  UNL1       -0.0000
     48 C          63.7663   88.8947   15.5621 C.ar    1  UNL1       -0.0003
     49 C          64.2902   87.7923   14.6903 C.ar    1  UNL1       -0.0042
@<TRIPOS>BOND
     1    19    20    1
     2    20    21    1
     3    20     6    1
     4     6     7    1
     5     7     8   am
     6     8     9    2
     7     8    10   am
     8    10    11    1
     9    10    13    1
    10    13    14    1
    11    14    15   ar
    12    15    16   ar
    13    16    17   ar
    14    17    18   ar
    15     6     2    1
    16     2     3    2
    17     2     4   am
    18     4     1    1
    19     1    29    1
    20    29    30    1
    21    31    30    1
    22    31    43    1
    23    43    44    1
    24    44    45   ar
    25    45    46   ar
    26    46    47   ar
    27    47    48   ar
    28    48    49   ar
    29    31    32    1
    30    32    33   am
    31    33    34    2
    32    33    36    1
    33    36    37    1
    34    37    38    1
    35    38    39   ar
    36    39    40   ar
    37    40    41   ar
    38    41    42   ar
    39     1    22    1
    40    22    23    1
    41    23    24   ar
    42    24    25   ar
    43    25    26   ar
    44    26    27   ar
    45    27    28   ar
    46    18    14   ar
    47    49    44   ar
    48    42    38   ar
    49    28    23   ar
    50     7    12    1
    51     4     5    1
    52    32    35    1
@<TRIPOS>MOLECULE
*****
 49 52 0 0 0
SMALL
GASTEIGER

@<TRIPOS>ATOM
      1 C          61.0359   89.1041   11.5040 C.3     1  UNL1        0.0760
      2 C          62.2787   86.9287   10.8159 C.2     1  UNL1        0.2403
      3 O          62.7990   87.6145    9.5875 O.2     1  UNL1       -0.2733
      4 N          61.3972   87.6735   11.7742 N.am    1  UNL1       -0.3043
      5 H          61.0557   87.2234   12.5805 H       1  UNL1        0.1494
      6 C          62.6400   85.4981   11.0861 C.3     1  UNL1        0.1496
      7 N          62.4741   84.9302   12.4645 N.am    1  UNL1       -0.2824
      8 C          63.1474   85.5877   13.6326 C.2     1  UNL1        0.3046
      9 O          63.9866   86.8131   13.4222 O.2     1  UNL1       -0.2526
     10 N          62.9816   85.0198   15.0110 N.am    1  UNL1       -0.2567
     11 C          63.6549   85.6773   16.1790 C.3     1  UNL1        0.1168
     12 H          61.9234   84.1259   12.6026 H       1  UNL1        0.1514
     13 C          62.1425   83.7945   15.2213 C.3     1  UNL1        0.1414
     14 C          62.4475   82.5372   14.4622 C.ar    1  UNL1        0.0862
     15 C          61.4984   81.4011   14.2201 C.ar    1  UNL1        0.0533
     16 S          62.2196   80.3571   13.4202 S.2     1  UNL1       -0.0642
     17 C          63.6144   80.8478   13.1679 C.ar    1  UNL1        0.1342
     18 N          63.7553   82.1952   13.8119 N.ar    1  UNL1       -0.2389
     19 C          62.9419   85.0302    8.5484 C.3     1  UNL1        0.0022
     20 C          63.1670   84.6355    9.9779 C.3     1  UNL1        0.0270
     21 C          63.9192   83.3782   10.2993 C.3     1  UNL1        0.0022
     22 C          59.8314   89.4290   10.6711 C.3     1  UNL1        0.0459
     23 C          59.6588   88.7949    9.3227 C.ar    1  UNL1       -0.0205
     24 C          59.7903   89.6258    8.0808 C.ar    1  UNL1       -0.0042
     25 C          59.6177   88.9918    6.7324 C.ar    1  UNL1       -0.0003
     26 C          59.3136   87.5268    6.6259 C.ar    1  UNL1       -0.0000
     27 C          59.1820   86.6958    7.8678 C.ar    1  UNL1       -0.0003
     28 C          59.3547   87.3299    9.2162 C.ar    1  UNL1       -0.0042
     29 C          61.8791   90.2097   12.0667 C.3     1  UNL1        0.0216
     30 C          63.0706   90.7070   11.3031 C.3     1  UNL1        0.0217
     31 C          64.2238   91.3284   12.0340 C.3     1  UNL1        0.0792
     32 N          64.0192   91.9104   13.4013 N.am    1  UNL1       -0.2720
     33 C          64.3075   91.0835   14.6192 C.2     1  UNL1        0.4019
     34 O          64.8003   89.6747   14.4698 O.2     1  UNL1       -0.2264
     35 H          63.6958   92.8351   13.4994 H       1  UNL1        0.1527
     36 O          64.1029   91.6654   15.9865 O.3     1  UNL1       -0.4291
     37 C          65.2261   92.3872   16.6701 C.3     1  UNL1        0.2447
     38 C          66.4923   92.6834   15.9225 C.ar    1  UNL1        0.0714
     39 C          66.5972   93.4357   14.6290 C.ar    1  UNL1        0.1053
     40 N          68.0457   93.4966   14.2443 N.ar    1  UNL1       -0.2350
     41 C          68.8362   92.7819   15.3000 C.ar    1  UNL1        0.1343
     42 S          67.8761   92.2794   16.3372 S.2     1  UNL1       -0.0652
     43 C          65.5814   91.3678   11.3976 C.3     1  UNL1        0.0460
     44 C          66.0981   92.6483   10.8113 C.ar    1  UNL1       -0.0205
     45 C          65.3724   93.9361   11.0655 C.ar    1  UNL1       -0.0042
     46 C          65.8891   95.2165   10.4792 C.ar    1  UNL1       -0.0003
     47 C          67.1314   95.2089    9.6387 C.ar    1  UNL1       -0.0000
     48 C          67.8571   93.9210    9.3845 C.ar    1  UNL1       -0.0003
     49 C          67.3405   92.6407    9.9707 C.ar    1  UNL1       -0.0042
@<TRIPOS>BOND
     1    19    20    1
     2    20    21    1
     3    20     6    1
     4     6     7    1
     5     7     8   am
     6     8     9    2
     7     8    10   am
     8    10    11    1
     9    10    13    1
    10    13    14    1
    11    14    15   ar
    12    15    16   ar
    13    16    17   ar
    14    17    18   ar
    15     6     2    1
    16     2     3    2
    17     2     4   am
    18     4     1    1
    19     1    29    1
    20    29    30    1
    21    31    30    1
    22    31    43    1
    23    43    44    1
    24    44    45   ar
    25    45    46   ar
    26    46    47   ar
    27    47    48   ar
    28    48    49   ar
    29    31    32    1
    30    32    33   am
    31    33    34    2
    32    33    36    1
    33    36    37    1
    34    37    38    1
    35    38    39   ar
    36    39    40   ar
    37    40    41   ar
    38    41    42   ar
    39     1    22    1
    40    22    23    1
    41    23    24   ar
    42    24    25   ar
    43    25    26   ar
    44    26    27   ar
    45    27    28   ar
    46    18    14   ar
    47    49    44   ar
    48    42    38   ar
    49    28    23   ar
    50     7    12    1
    51     4     5    1
    52    32    35    1
@<TRIPOS>MOLECULE
*****
 49 52 0 0 0
SMALL
GASTEIGER

@<TRIPOS>ATOM
      1 C          61.4843   89.0017   11.4955 C.3     1  UNL1        0.0760
      2 C          62.4615   86.6966   10.8016 C.2     1  UNL1        0.2403
      3 O          62.7327   87.2260    9.4246 O.2     1  UNL1       -0.2733
      4 N          61.8373   87.5844   11.8371 N.am    1  UNL1       -0.3043
      5 H          61.6594   87.2369   12.7408 H       1  UNL1        0.1494
      6 C          62.8145   85.2793   11.1432 C.3     1  UNL1        0.1496
      7 N          62.5814   84.7621   12.5318 N.am    1  UNL1       -0.2824
      8 C          63.1947   85.4648   13.7066 C.2     1  UNL1        0.3046
      9 O          64.0410   86.6847   13.4927 O.2     1  UNL1       -0.2526
     10 N          62.9616   84.9477   15.0952 N.am    1  UNL1       -0.2567
     11 C          63.5748   85.6504   16.2700 C.3     1  UNL1        0.1168
     12 H          62.0259   83.9615   12.6721 H       1  UNL1        0.1514
     13 C          62.1152   83.7279   15.3090 C.3     1  UNL1        0.1414
     14 C          62.4366   82.4553   14.5828 C.ar    1  UNL1        0.0862
     15 C          61.4548   81.3903   14.1933 C.ar    1  UNL1        0.0533
     16 S          62.2077   80.3011   13.4885 S.2     1  UNL1       -0.0642
     17 C          63.6549   80.6930   13.4423 C.ar    1  UNL1        0.1342
     18 N          63.7964   82.0244   14.1186 N.ar    1  UNL1       -0.2389
     19 C          63.2422   84.7162    8.6432 C.3     1  UNL1        0.0022
     20 C          63.4006   84.3792   10.0962 C.3     1  UNL1        0.0270
     21 C          64.1452   83.1420   10.5022 C.3     1  UNL1        0.0022
     22 C          60.1569   89.3142   10.8706 C.3     1  UNL1        0.0459
     23 C          59.8287   88.7885    9.5046 C.ar    1  UNL1       -0.0205
     24 C          59.3897   87.3644    9.3345 C.ar    1  UNL1       -0.0042
     25 C          59.0615   86.8387    7.9685 C.ar    1  UNL1       -0.0003
     26 C          59.1724   87.7372    6.7726 C.ar    1  UNL1       -0.0000
     27 C          59.6114   89.1614    6.9426 C.ar    1  UNL1       -0.0003
     28 C          59.9396   89.6871    8.3085 C.ar    1  UNL1       -0.0042
     29 C          62.4586   90.1064   11.7788 C.3     1  UNL1        0.0216
     30 C          63.7549   89.8041   12.4703 C.3     1  UNL1        0.0217
     31 C          64.4787   90.8874   13.2138 C.3     1  UNL1        0.0792
     32 N          64.3442   92.3159   12.7766 N.am    1  UNL1       -0.2720
     33 C          65.2853   92.8789   11.7532 C.2     1  UNL1        0.4019
     34 O          66.3610   92.0133   11.1669 O.2     1  UNL1       -0.2264
     35 H          63.6382   92.8840   13.1614 H       1  UNL1        0.1527
     36 O          65.1508   94.3074   11.3160 O.3     1  UNL1       -0.4291
     37 C          66.3724   95.1655   11.1705 C.3     1  UNL1        0.2447
     38 C          66.8769   95.5268    9.8049 C.ar    1  UNL1        0.0714
     39 C          67.6338   94.6233    8.8771 C.ar    1  UNL1        0.1053
     40 N          67.9378   95.3930    7.6261 N.ar    1  UNL1       -0.2350
     41 C          67.3689   96.7723    7.7807 C.ar    1  UNL1        0.1343
     42 S          66.7133   96.8549    9.1273 S.2     1  UNL1       -0.0652
     43 C          65.3371   90.5420   14.3944 C.3     1  UNL1        0.0460
     44 C          66.4795   91.4353   14.7781 C.ar    1  UNL1       -0.0205
     45 C          66.3493   92.3556   15.9553 C.ar    1  UNL1       -0.0042
     46 C          67.4916   93.2488   16.3389 C.ar    1  UNL1       -0.0003
     47 C          68.7642   93.2217   15.5453 C.ar    1  UNL1       -0.0000
     48 C          68.8944   92.3014   14.3680 C.ar    1  UNL1       -0.0003
     49 C          67.7520   91.4082   13.9844 C.ar    1  UNL1       -0.0042
@<TRIPOS>BOND
     1    19    20    1
     2    20    21    1
     3    20     6    1
     4     6     7    1
     5     7     8   am
     6     8     9    2
     7     8    10   am
     8    10    11    1
     9    10    13    1
    10    13    14    1
    11    14    15   ar
    12    15    16   ar
    13    16    17   ar
    14    17    18   ar
    15     6     2    1
    16     2     3    2
    17     2     4   am
    18     4     1    1
    19     1    29    1
    20    29    30    1
    21    31    30    1
    22    31    43    1
    23    43    44    1
    24    44    45   ar
    25    45    46   ar
    26    46    47   ar
    27    47    48   ar
    28    48    49   ar
    29    31    32    1
    30    32    33   am
    31    33    34    2
    32    33    36    1
    33    36    37    1
    34    37    38    1
    35    38    39   ar
    36    39    40   ar
    37    40    41   ar
    38    41    42   ar
    39     1    22    1
    40    22    23    1
    41    23    24   ar
    42    24    25   ar
    43    25    26   ar
    44    26    27   ar
    45    27    28   ar
    46    18    14   ar
    47    49    44   ar
    48    42    38   ar
    49    28    23   ar
    50     7    12    1
    51     4     5    1
    52    32    35    1
@<TRIPOS>MOLECULE
*****
 49 52 0 0 0
SMALL
GASTEIGER

@<TRIPOS>ATOM
      1 C          63.2021   90.8878   10.9924 C.3     1  UNL1        0.0760
      2 C          61.3788   89.1320   10.4071 C.2     1  UNL1        0.2403
      3 O          60.3191   90.0616   10.9197 O.2     1  UNL1       -0.2733
      4 N          62.8204   89.5451   10.4435 N.am    1  UNL1       -0.3043
      5 H          63.5159   88.9350   10.1070 H       1  UNL1        0.1494
      6 C          60.9970   87.7893    9.8582 C.3     1  UNL1        0.1496
      7 N          61.4588   86.5389   10.5461 N.am    1  UNL1       -0.2824
      8 C          62.4787   85.6554    9.8908 C.2     1  UNL1        0.3046
      9 O          63.0368   86.0224    8.5477 O.2     1  UNL1       -0.2526
     10 N          62.9406   84.4051   10.5787 N.am    1  UNL1       -0.2567
     11 C          63.9605   83.5216    9.9235 C.3     1  UNL1        0.1168
     12 H          61.0926   86.2980   11.4276 H       1  UNL1        0.1514
     13 C          62.3826   84.0381   11.9218 C.3     1  UNL1        0.1414
     14 C          62.4466   82.6171   12.3978 C.ar    1  UNL1        0.0862
     15 C          62.1409   82.1375   13.7858 C.ar    1  UNL1        0.0533
     16 S          62.3330   80.6502   13.8152 S.2     1  UNL1       -0.0642
     17 C          62.7575   80.2104   12.4453 C.ar    1  UNL1        0.1342
     18 N          62.8278   81.4261   11.5694 N.ar    1  UNL1       -0.2389
     19 C          59.7573   88.9446    7.8888 C.3     1  UNL1        0.0022
     20 C          60.1534   87.6970    8.6213 C.3     1  UNL1        0.0270
     21 C          59.7059   86.3571    8.1171 C.3     1  UNL1        0.0022
     22 C          63.6400   91.9811   10.0633 C.3     1  UNL1        0.0459
     23 C          64.9892   92.6141   10.2331 C.ar    1  UNL1       -0.0205
     24 C          66.2310   91.7903   10.0623 C.ar    1  UNL1       -0.0042
     25 C          67.5802   92.4233   10.2321 C.ar    1  UNL1       -0.0003
     26 C          67.6877   93.8802   10.5727 C.ar    1  UNL1       -0.0000
     27 C          66.4458   94.7040   10.7435 C.ar    1  UNL1       -0.0003
     28 C          65.0966   94.0710   10.5737 C.ar    1  UNL1       -0.0042
     29 C          63.1461   91.1373   12.4704 C.3     1  UNL1        0.0216
     30 C          62.9978   89.9860   13.4203 C.3     1  UNL1        0.0217
     31 C          64.0216   89.7623   14.4935 C.3     1  UNL1        0.0792
     32 N          64.6332   88.4048   14.6754 N.am    1  UNL1       -0.2720
     33 C          64.2301   87.2740   13.7760 C.2     1  UNL1        0.4019
     34 O          63.2155   87.5007   12.6947 O.2     1  UNL1       -0.2264
     35 H          65.2991   88.2559   15.3851 H       1  UNL1        0.1527
     36 O          64.8417   85.9164   13.9579 O.3     1  UNL1       -0.4291
     37 C          64.3361   85.0044   15.0360 C.3     1  UNL1        0.2447
     38 C          63.3434   85.5091   16.0409 C.ar    1  UNL1        0.0714
     39 C          61.8573   85.3130   15.9874 C.ar    1  UNL1        0.1053
     40 N          61.2579   85.9813   17.1892 N.ar    1  UNL1       -0.2350
     41 C          62.3736   86.5904   17.9854 C.ar    1  UNL1        0.1343
     42 S          63.6625   86.2986   17.2758 S.2     1  UNL1       -0.0652
     43 C          64.4338   90.8961   15.3848 C.3     1  UNL1        0.0460
     44 C          65.7673   91.5554   15.1917 C.ar    1  UNL1       -0.0205
     45 C          66.5437   91.3217   13.9299 C.ar    1  UNL1       -0.0042
     46 C          67.8772   91.9809   13.7368 C.ar    1  UNL1       -0.0003
     47 C          68.4341   92.8739   14.8056 C.ar    1  UNL1       -0.0000
     48 C          67.6576   93.1077   16.0675 C.ar    1  UNL1       -0.0003
     49 C          66.3242   92.4484   16.2606 C.ar    1  UNL1       -0.0042
@<TRIPOS>BOND
     1    19    20    1
     2    20    21    1
     3    20     6    1
     4     6     7    1
     5     7     8   am
     6     8     9    2
     7     8    10   am
     8    10    11    1
     9    10    13    1
    10    13    14    1
    11    14    15   ar
    12    15    16   ar
    13    16    17   ar
    14    17    18   ar
    15     6     2    1
    16     2     3    2
    17     2     4   am
    18     4     1    1
    19     1    29    1
    20    29    30    1
    21    31    30    1
    22    31    43    1
    23    43    44    1
    24    44    45   ar
    25    45    46   ar
    26    46    47   ar
    27    47    48   ar
    28    48    49   ar
    29    31    32    1
    30    32    33   am
    31    33    34    2
    32    33    36    1
    33    36    37    1
    34    37    38    1
    35    38    39   ar
    36    39    40   ar
    37    40    41   ar
    38    41    42   ar
    39     1    22    1
    40    22    23    1
    41    23    24   ar
    42    24    25   ar
    43    25    26   ar
    44    26    27   ar
    45    27    28   ar
    46    18    14   ar
    47    49    44   ar
    48    42    38   ar
    49    28    23   ar
    50     7    12    1
    51     4     5    1
    52    32    35    1
@<TRIPOS>MOLECULE
*****
 49 52 0 0 0
SMALL
GASTEIGER

@<TRIPOS>ATOM
      1 C          62.3904   89.5087   10.2236 C.3     1  UNL1        0.0760
      2 C          62.0202   87.1229   11.1833 C.2     1  UNL1        0.2403
      3 O          60.7020   87.5565   11.7528 O.2     1  UNL1       -0.2733
      4 N          62.8645   88.0990   10.4187 N.am    1  UNL1       -0.3043
      5 H          63.7297   87.8145   10.0449 H       1  UNL1        0.1494
      6 C          62.4943   85.7132   11.3784 C.3     1  UNL1        0.1496
      7 N          62.4605   85.0928   12.7437 N.am    1  UNL1       -0.2824
      8 C          63.2175   85.7251   13.8738 C.2     1  UNL1        0.3046
      9 O          64.0082   86.9779   13.6387 O.2     1  UNL1       -0.2526
     10 N          63.1837   85.1047   15.2391 N.am    1  UNL1       -0.2567
     11 C          63.9406   85.7371   16.3692 C.3     1  UNL1        0.1168
     12 H          61.9415   84.2705   12.8981 H       1  UNL1        0.1514
     13 C          62.3929   83.8520   15.4742 C.3     1  UNL1        0.1414
     14 C          62.6116   82.6520   14.6011 C.ar    1  UNL1        0.0862
     15 C          61.5955   81.5950   14.2846 C.ar    1  UNL1        0.0533
     16 S          62.2407   80.5881   13.3791 S.2     1  UNL1       -0.0642
     17 C          63.6556   81.0229   13.1359 C.ar    1  UNL1        0.1342
     18 N          63.8848   82.2985   13.8911 N.ar    1  UNL1       -0.2389
     19 C          63.7761   83.6593   10.4358 C.3     1  UNL1        0.0022
     20 C          63.0022   84.9240   10.2083 C.3     1  UNL1        0.0270
     21 C          62.7362   85.3994    8.8108 C.3     1  UNL1        0.0022
     22 C          60.9285   89.7895   10.0384 C.3     1  UNL1        0.0459
     23 C          60.1845   89.1676    8.8939 C.ar    1  UNL1       -0.0205
     24 C          59.6961   87.7531    8.9971 C.ar    1  UNL1       -0.0042
     25 C          58.9521   87.1312    7.8527 C.ar    1  UNL1       -0.0003
     26 C          58.6965   87.9238    6.6051 C.ar    1  UNL1       -0.0000
     27 C          59.1848   89.3384    6.5019 C.ar    1  UNL1       -0.0003
     28 C          59.9289   89.9603    7.6464 C.ar    1  UNL1       -0.0042
     29 C          63.3781   90.6375   10.2137 C.3     1  UNL1        0.0216
     30 C          63.8611   91.2228   11.5076 C.3     1  UNL1        0.0217
     31 C          65.0168   92.1790   11.5131 C.3     1  UNL1        0.0792
     32 N          65.4837   92.7838   12.8040 N.am    1  UNL1       -0.2720
     33 C          66.9316   92.7064   13.1881 C.2     1  UNL1        0.4019
     34 O          67.9127   92.0242   12.2813 O.2     1  UNL1       -0.2264
     35 H          64.8398   93.2315   13.3991 H       1  UNL1        0.1527
     36 O          67.3985   93.3111   14.4789 O.3     1  UNL1       -0.4291
     37 C          66.9904   92.6976   15.7854 C.3     1  UNL1        0.2447
     38 C          65.6468   92.0444   15.9201 C.ar    1  UNL1        0.0714
     39 C          64.5370   92.4892   16.8259 C.ar    1  UNL1        0.1053
     40 N          63.3814   91.5515   16.6382 N.ar    1  UNL1       -0.2350
     41 C          63.7770   90.5270   15.6165 C.ar    1  UNL1        0.1343
     42 S          65.1771   90.8317   15.1727 S.2     1  UNL1       -0.0652
     43 C          65.7056   92.5305   10.2278 C.3     1  UNL1        0.0460
     44 C          66.1513   93.9406    9.9770 C.ar    1  UNL1       -0.0205
     45 C          67.3277   94.2081    9.0856 C.ar    1  UNL1       -0.0042
     46 C          67.7733   95.6182    8.8347 C.ar    1  UNL1       -0.0003
     47 C          67.0426   96.7609    9.4753 C.ar    1  UNL1       -0.0000
     48 C          65.8662   96.4934   10.3667 C.ar    1  UNL1       -0.0003
     49 C          65.4206   95.0833   10.6175 C.ar    1  UNL1       -0.0042
@<TRIPOS>BOND
     1    19    20    1
     2    20    21    1
     3    20     6    1
     4     6     7    1
     5     7     8   am
     6     8     9    2
     7     8    10   am
     8    10    11    1
     9    10    13    1
    10    13    14    1
    11    14    15   ar
    12    15    16   ar
    13    16    17   ar
    14    17    18   ar
    15     6     2    1
    16     2     3    2
    17     2     4   am
    18     4     1    1
    19     1    29    1
    20    29    30    1
    21    31    30    1
    22    31    43    1
    23    43    44    1
    24    44    45   ar
    25    45    46   ar
    26    46    47   ar
    27    47    48   ar
    28    48    49   ar
    29    31    32    1
    30    32    33   am
    31    33    34    2
    32    33    36    1
    33    36    37    1
    34    37    38    1
    35    38    39   ar
    36    39    40   ar
    37    40    41   ar
    38    41    42   ar
    39     1    22    1
    40    22    23    1
    41    23    24   ar
    42    24    25   ar
    43    25    26   ar
    44    26    27   ar
    45    27    28   ar
    46    18    14   ar
    47    49    44   ar
    48    42    38   ar
    49    28    23   ar
    50     7    12    1
    51     4     5    1
    52    32    35    1
@<TRIPOS>MOLECULE
*****
 49 52 0 0 0
SMALL
GASTEIGER

@<TRIPOS>ATOM
      1 C          63.8156   91.2918   10.9052 C.3     1  UNL1        0.0760
      2 C          63.7097   90.2353   13.2764 C.2     1  UNL1        0.2403
      3 O          62.2837   89.8372   13.0353 O.2     1  UNL1       -0.2733
      4 N          64.4756   90.9626   12.2113 N.am    1  UNL1       -0.3043
      5 H          65.4115   91.2239   12.3695 H       1  UNL1        0.1494
      6 C          64.3698   89.9061   14.5825 C.3     1  UNL1        0.1496
      7 N          64.3418   88.4997   15.1035 N.am    1  UNL1       -0.2824
      8 C          63.2983   88.0896   16.0999 C.2     1  UNL1        0.3046
      9 O          62.2827   89.0859   16.5754 O.2     1  UNL1       -0.2526
     10 N          63.2704   86.6833   16.6209 N.am    1  UNL1       -0.2567
     11 C          62.2268   86.2732   17.6173 C.3     1  UNL1        0.1168
     12 H          65.0084   87.8458   14.7914 H       1  UNL1        0.1514
     13 C          64.2859   85.6870   16.1454 C.3     1  UNL1        0.1414
     14 C          63.8549   84.5149   15.3145 C.ar    1  UNL1        0.0862
     15 C          62.5187   83.8358   15.3738 C.ar    1  UNL1        0.0533
     16 S          62.5224   82.7173   14.3744 S.2     1  UNL1       -0.0642
     17 C          63.8609   82.7051   13.6973 C.ar    1  UNL1        0.1342
     18 N          64.6844   83.8160   14.2783 N.ar    1  UNL1       -0.2389
     19 C          64.3258   91.6934   16.4676 C.3     1  UNL1        0.0022
     20 C          65.0577   90.9832   15.3676 C.3     1  UNL1        0.0270
     21 C          66.4776   91.3501   15.0528 C.3     1  UNL1        0.0022
     22 C          63.9428   92.6701   10.3269 C.3     1  UNL1        0.0459
     23 C          65.3002   93.2732   10.1175 C.ar    1  UNL1       -0.0205
     24 C          66.5034   92.3865    9.9909 C.ar    1  UNL1       -0.0042
     25 C          67.8608   92.9895    9.7815 C.ar    1  UNL1       -0.0003
     26 C          68.0149   94.4793    9.6986 C.ar    1  UNL1       -0.0000
     27 C          66.8117   95.3660    9.8252 C.ar    1  UNL1       -0.0003
     28 C          65.4543   94.7630   10.0346 C.ar    1  UNL1       -0.0042
     29 C          63.0283   90.2429   10.1773 C.3     1  UNL1        0.0216
     30 C          61.5388   90.1749   10.3409 C.3     1  UNL1        0.0217
     31 C          60.7273   89.2762    9.4555 C.3     1  UNL1        0.0792
     32 N          60.3394   89.7302    8.0795 N.am    1  UNL1       -0.2720
     33 C          59.2819   88.9896    7.3157 C.2     1  UNL1        0.4019
     34 O          58.6124   87.7950    7.9279 O.2     1  UNL1       -0.2264
     35 H          60.7788   90.5142    7.6777 H       1  UNL1        0.1527
     36 O          58.8940   89.4436    5.9397 O.3     1  UNL1       -0.4291
     37 C          58.7736   90.9082    5.6393 C.3     1  UNL1        0.2447
     38 C          59.6994   91.5492    4.6484 C.ar    1  UNL1        0.0714
     39 C          61.1586   91.2450    4.4802 C.ar    1  UNL1        0.1053
     40 N          61.6896   92.1147    3.3795 N.ar    1  UNL1       -0.2350
     41 C          60.5586   92.9564    2.8673 C.ar    1  UNL1        0.1343
     42 S          59.3287   92.6069    3.6515 S.2     1  UNL1       -0.0652
     43 C          60.3037   87.9235    9.9462 C.3     1  UNL1        0.0460
     44 C          61.2821   86.7865    9.9491 C.ar    1  UNL1       -0.0205
     45 C          61.9857   86.3991    8.6823 C.ar    1  UNL1       -0.0042
     46 C          62.9640   85.2622    8.6853 C.ar    1  UNL1       -0.0003
     47 C          63.2389   84.5125    9.9551 C.ar    1  UNL1       -0.0000
     48 C          62.5354   84.8999   11.2220 C.ar    1  UNL1       -0.0003
     49 C          61.5570   86.0368   11.2190 C.ar    1  UNL1       -0.0042
@<TRIPOS>BOND
     1    19    20    1
     2    20    21    1
     3    20     6    1
     4     6     7    1
     5     7     8   am
     6     8     9    2
     7     8    10   am
     8    10    11    1
     9    10    13    1
    10    13    14    1
    11    14    15   ar
    12    15    16   ar
    13    16    17   ar
    14    17    18   ar
    15     6     2    1
    16     2     3    2
    17     2     4   am
    18     4     1    1
    19     1    29    1
    20    29    30    1
    21    31    30    1
    22    31    43    1
    23    43    44    1
    24    44    45   ar
    25    45    46   ar
    26    46    47   ar
    27    47    48   ar
    28    48    49   ar
    29    31    32    1
    30    32    33   am
    31    33    34    2
    32    33    36    1
    33    36    37    1
    34    37    38    1
    35    38    39   ar
    36    39    40   ar
    37    40    41   ar
    38    41    42   ar
    39     1    22    1
    40    22    23    1
    41    23    24   ar
    42    24    25   ar
    43    25    26   ar
    44    26    27   ar
    45    27    28   ar
    46    18    14   ar
    47    49    44   ar
    48    42    38   ar
    49    28    23   ar
    50     7    12    1
    51     4     5    1
    52    32    35    1
@<TRIPOS>MOLECULE
*****
 49 52 0 0 0
SMALL
GASTEIGER

@<TRIPOS>ATOM
      1 C          62.8908   90.2724   12.2910 C.3     1  UNL1        0.0760
      2 C          63.7535   88.7707   14.2277 C.2     1  UNL1        0.2403
      3 O          65.1061   89.4100   14.1210 O.2     1  UNL1       -0.2733
      4 N          62.6458   89.2019   13.3127 N.am    1  UNL1       -0.3043
      5 H          61.7579   88.7822   13.3828 H       1  UNL1        0.1494
      6 C          63.5084   87.7002   15.2494 C.3     1  UNL1        0.1496
      7 N          63.6289   86.2551   14.8654 N.am    1  UNL1       -0.2824
      8 C          63.5300   85.8514   13.4241 C.2     1  UNL1        0.3046
      9 O          63.3106   86.8928   12.3669 O.2     1  UNL1       -0.2526
     10 N          63.6505   84.4065   13.0400 N.am    1  UNL1       -0.2567
     11 C          63.5516   84.0028   11.5987 C.3     1  UNL1        0.1168
     12 H          63.7729   85.5717   15.5592 H       1  UNL1        0.1514
     13 C          63.8699   83.3652   14.0971 C.3     1  UNL1        0.1414
     14 C          63.0980   82.0797   14.0554 C.ar    1  UNL1        0.0862
     15 C          61.6152   81.9356   14.2298 C.ar    1  UNL1        0.0533
     16 S          61.2742   80.4794   14.1141 S.2     1  UNL1       -0.0642
     17 C          62.5464   79.7236   13.8681 C.ar    1  UNL1        0.1342
     18 N          63.6735   80.7126   13.8318 N.ar    1  UNL1       -0.2389
     19 C          63.1303   89.5166   17.0681 C.3     1  UNL1        0.0022
     20 C          63.1428   88.0746   16.6552 C.3     1  UNL1        0.0270
     21 C          62.7899   87.0070   17.6480 C.3     1  UNL1        0.0022
     22 C          63.5163   91.5724   12.7021 C.3     1  UNL1        0.0459
     23 C          64.8469   91.9756   12.1391 C.ar    1  UNL1       -0.0205
     24 C          66.0595   91.9963   13.0216 C.ar    1  UNL1       -0.0042
     25 C          67.3901   92.3995   12.4586 C.ar    1  UNL1       -0.0003
     26 C          67.5080   92.7821   11.0130 C.ar    1  UNL1       -0.0000
     27 C          66.2953   92.7615   10.1304 C.ar    1  UNL1       -0.0003
     28 C          64.9647   92.3582   10.6934 C.ar    1  UNL1       -0.0042
     29 C          62.5105   90.0430   10.8583 C.3     1  UNL1        0.0216
     30 C          61.0638   89.9711   10.4687 C.3     1  UNL1        0.0217
     31 C          60.6337   89.0780    9.3429 C.3     1  UNL1        0.0792
     32 N          60.4080   89.6512    7.9752 N.am    1  UNL1       -0.2720
     33 C          59.2348   89.1993    7.1569 C.2     1  UNL1        0.4019
     34 O          58.2874   88.1743    7.7062 O.2     1  UNL1       -0.2264
     35 H          61.0298   90.3239    7.6146 H       1  UNL1        0.1527
     36 O          59.0091   89.7724    5.7892 O.3     1  UNL1       -0.4291
     37 C          59.1277   91.2511    5.5667 C.3     1  UNL1        0.2447
     38 C          59.9981   91.7761    4.4637 C.ar    1  UNL1        0.0714
     39 C          61.4512   91.4630    4.2623 C.ar    1  UNL1        0.1053
     40 N          61.9195   92.1999    3.0425 N.ar    1  UNL1       -0.2350
     41 C          60.7558   92.9685    2.4901 C.ar    1  UNL1        0.1343
     42 S          59.5684   92.7066    3.3684 S.2     1  UNL1       -0.0652
     43 C          60.4293   87.6118    9.5848 C.3     1  UNL1        0.0460
     44 C          61.1549   86.6045    8.7428 C.ar    1  UNL1       -0.0205
     45 C          60.4332   85.8910    7.6383 C.ar    1  UNL1       -0.0042
     46 C          61.1589   84.8837    6.7964 C.ar    1  UNL1       -0.0003
     47 C          62.6062   84.5899    7.0591 C.ar    1  UNL1       -0.0000
     48 C          63.3278   85.3033    8.1637 C.ar    1  UNL1       -0.0003
     49 C          62.6022   86.3106    9.0055 C.ar    1  UNL1       -0.0042
@<TRIPOS>BOND
     1    19    20    1
     2    20    21    1
     3    20     6    1
     4     6     7    1
     5     7     8   am
     6     8     9    2
     7     8    10   am
     8    10    11    1
     9    10    13    1
    10    13    14    1
    11    14    15   ar
    12    15    16   ar
    13    16    17   ar
    14    17    18   ar
    15     6     2    1
    16     2     3    2
    17     2     4   am
    18     4     1    1
    19     1    29    1
    20    29    30    1
    21    31    30    1
    22    31    43    1
    23    43    44    1
    24    44    45   ar
    25    45    46   ar
    26    46    47   ar
    27    47    48   ar
    28    48    49   ar
    29    31    32    1
    30    32    33   am
    31    33    34    2
    32    33    36    1
    33    36    37    1
    34    37    38    1
    35    38    39   ar
    36    39    40   ar
    37    40    41   ar
    38    41    42   ar
    39     1    22    1
    40    22    23    1
    41    23    24   ar
    42    24    25   ar
    43    25    26   ar
    44    26    27   ar
    45    27    28   ar
    46    18    14   ar
    47    49    44   ar
    48    42    38   ar
    49    28    23   ar
    50     7    12    1
    51     4     5    1
    52    32    35    1
@<TRIPOS>MOLECULE
*****
 49 52 0 0 0
SMALL
GASTEIGER

@<TRIPOS>ATOM
      1 C          62.4862   87.9619   11.2378 C.3     1  UNL1        0.0760
      2 C          60.7904   88.4672    9.3353 C.2     1  UNL1        0.2403
      3 O          60.1197   89.4891   10.2046 O.2     1  UNL1       -0.2733
      4 N          61.9737   87.7035    9.8519 N.am    1  UNL1       -0.3043
      5 H          62.4140   87.0328    9.2814 H       1  UNL1        0.1494
      6 C          60.2780   88.2088    7.9495 C.3     1  UNL1        0.1496
      7 N          60.3144   89.3000    6.9208 N.am    1  UNL1       -0.2824
      8 C          59.0340   89.8590    6.3749 C.2     1  UNL1        0.3046
      9 O          57.7172   89.3269    6.8576 O.2     1  UNL1       -0.2526
     10 N          59.0704   90.9501    5.3462 N.am    1  UNL1       -0.2567
     11 C          57.7900   91.5092    4.8003 C.3     1  UNL1        0.1168
     12 H          61.1786   89.6492    6.6040 H       1  UNL1        0.1514
     13 C          60.3871   91.4822    4.8636 C.3     1  UNL1        0.1414
     14 C          60.4639   92.2282    3.5644 C.ar    1  UNL1        0.0862
     15 C          61.7002   92.4426    2.7426 C.ar    1  UNL1        0.0533
     16 S          61.3182   93.2375    1.5293 S.2     1  UNL1       -0.0642
     17 C          59.8457   93.5145    1.6013 C.ar    1  UNL1        0.1342
     18 N          59.3177   92.8907    2.8591 N.ar    1  UNL1       -0.2389
     19 C          60.6372   85.8041    7.0339 C.3     1  UNL1        0.0022
     20 C          59.7291   86.8593    7.5923 C.3     1  UNL1        0.0270
     21 C          58.2721   86.5651    7.7934 C.3     1  UNL1        0.0022
     22 C          62.3633   86.9024   12.2925 C.3     1  UNL1        0.0459
     23 C          62.6887   85.4755   11.9637 C.ar    1  UNL1       -0.0205
     24 C          63.0299   85.0895   10.5550 C.ar    1  UNL1       -0.0042
     25 C          63.3553   83.6626   10.2262 C.ar    1  UNL1       -0.0003
     26 C          63.3394   82.6217   11.3061 C.ar    1  UNL1       -0.0000
     27 C          62.9982   83.0077   12.7149 C.ar    1  UNL1       -0.0003
     28 C          62.6728   84.4346   13.0437 C.ar    1  UNL1       -0.0042
     29 C          63.1216   89.2797   11.5689 C.3     1  UNL1        0.0216
     30 C          62.7521   89.9932   12.8355 C.3     1  UNL1        0.0217
     31 C          63.7996   90.7357   13.6110 C.3     1  UNL1        0.0792
     32 N          64.6173   91.7988   12.9393 N.am    1  UNL1       -0.2720
     33 C          66.0510   92.0019   13.3311 C.2     1  UNL1        0.4019
     34 O          66.6669   91.1419   14.3946 O.2     1  UNL1       -0.2264
     35 H          64.2130   92.3633   12.2413 H       1  UNL1        0.1527
     36 O          66.8686   93.0651   12.6594 O.3     1  UNL1       -0.4291
     37 C          66.1928   94.2548   12.0448 C.3     1  UNL1        0.2447
     38 C          66.6212   94.7459   10.6938 C.ar    1  UNL1        0.0714
     39 C          66.5349   96.1602   10.2016 C.ar    1  UNL1        0.1053
     40 N          67.0715   96.1973    8.8014 N.ar    1  UNL1       -0.2350
     41 C          67.4894   94.8059    8.4281 C.ar    1  UNL1        0.1343
     42 S          67.2111   93.9089    9.5977 S.2     1  UNL1       -0.0652
     43 C          64.0295   90.4151   15.0582 C.3     1  UNL1        0.0460
     44 C          63.8489   89.0106   15.5531 C.ar    1  UNL1       -0.0205
     45 C          63.0225   88.7471   16.7768 C.ar    1  UNL1       -0.0042
     46 C          62.8419   87.3426   17.2717 C.ar    1  UNL1       -0.0003
     47 C          63.4879   86.2018   16.5429 C.ar    1  UNL1       -0.0000
     48 C          64.3144   86.4653   15.3192 C.ar    1  UNL1       -0.0003
     49 C          64.4949   87.8698   14.8243 C.ar    1  UNL1       -0.0042
@<TRIPOS>BOND
     1    19    20    1
     2    20    21    1
     3    20     6    1
     4     6     7    1
     5     7     8   am
     6     8     9    2
     7     8    10   am
     8    10    11    1
     9    10    13    1
    10    13    14    1
    11    14    15   ar
    12    15    16   ar
    13    16    17   ar
    14    17    18   ar
    15     6     2    1
    16     2     3    2
    17     2     4   am
    18     4     1    1
    19     1    29    1
    20    29    30    1
    21    31    30    1
    22    31    43    1
    23    43    44    1
    24    44    45   ar
    25    45    46   ar
    26    46    47   ar
    27    47    48   ar
    28    48    49   ar
    29    31    32    1
    30    32    33   am
    31    33    34    2
    32    33    36    1
    33    36    37    1
    34    37    38    1
    35    38    39   ar
    36    39    40   ar
    37    40    41   ar
    38    41    42   ar
    39     1    22    1
    40    22    23    1
    41    23    24   ar
    42    24    25   ar
    43    25    26   ar
    44    26    27   ar
    45    27    28   ar
    46    18    14   ar
    47    49    44   ar
    48    42    38   ar
    49    28    23   ar
    50     7    12    1
    51     4     5    1
    52    32    35    1
@<TRIPOS>MOLECULE
*****
 49 52 0 0 0
SMALL
GASTEIGER

@<TRIPOS>ATOM
      1 C          63.0996   90.8326   10.9721 C.3     1  UNL1        0.0760
      2 C          61.3292   89.0643   10.2731 C.2     1  UNL1        0.2403
      3 O          60.2314   90.0150   10.6481 O.2     1  UNL1       -0.2733
      4 N          62.7633   89.4730   10.4350 N.am    1  UNL1       -0.3043
      5 H          63.4839   88.8490   10.1889 H       1  UNL1        0.1494
      6 C          60.9929   87.7047    9.7360 C.3     1  UNL1        0.1496
      7 N          61.4816   86.4763   10.4449 N.am    1  UNL1       -0.2824
      8 C          62.5061   85.5935    9.7960 C.2     1  UNL1        0.3046
      9 O          63.0420   85.9391    8.4382 O.2     1  UNL1       -0.2526
     10 N          62.9947   84.3652   10.5048 N.am    1  UNL1       -0.2567
     11 C          64.0193   83.4824    9.8560 C.3     1  UNL1        0.1168
     12 H          61.1298   86.2495   11.3360 H       1  UNL1        0.1514
     13 C          62.4588   84.0197   11.8625 C.3     1  UNL1        0.1414
     14 C          62.7785   82.6901   12.4790 C.ar    1  UNL1        0.0862
     15 C          61.7855   81.6294   12.8515 C.ar    1  UNL1        0.0533
     16 S          62.5406   80.4715   13.4339 S.2     1  UNL1       -0.0642
     17 C          64.0004   80.8166   13.4213 C.ar    1  UNL1        0.1342
     18 N          64.1474   82.1878   12.8311 N.ar    1  UNL1       -0.2389
     19 C          59.7290   86.2181    8.0206 C.3     1  UNL1        0.0022
     20 C          60.1681   87.5734    8.4900 C.3     1  UNL1        0.0270
     21 C          59.7824   88.7974    7.7136 C.3     1  UNL1        0.0022
     22 C          63.6252   91.8938   10.0514 C.3     1  UNL1        0.0459
     23 C          64.9502   92.5393   10.3299 C.ar    1  UNL1       -0.0205
     24 C          65.0304   94.0199   10.5562 C.ar    1  UNL1       -0.0042
     25 C          66.3554   94.6655   10.8347 C.ar    1  UNL1       -0.0003
     26 C          67.6003   93.8303   10.8869 C.ar    1  UNL1       -0.0000
     27 C          67.5202   92.3496   10.6606 C.ar    1  UNL1       -0.0003
     28 C          66.1952   91.7041   10.3820 C.ar    1  UNL1       -0.0042
     29 C          62.9103   91.1310   12.4299 C.3     1  UNL1        0.0216
     30 C          64.0975   91.4428   13.2919 C.3     1  UNL1        0.0217
     31 C          64.6907   90.3773   14.1653 C.3     1  UNL1        0.0792
     32 N          63.8042   89.3438   14.7948 N.am    1  UNL1       -0.2720
     33 C          63.1364   89.6277   16.1076 C.2     1  UNL1        0.4019
     34 O          63.3551   90.9450   16.7909 O.2     1  UNL1       -0.2264
     35 H          63.6607   88.4793   14.3462 H       1  UNL1        0.1527
     36 O          62.2499   88.5943   16.7370 O.3     1  UNL1       -0.4291
     37 C          62.8532   87.3888   17.3948 C.3     1  UNL1        0.2447
     38 C          63.1773   86.1726   16.5789 C.ar    1  UNL1        0.0714
     39 C          62.3666   84.9122   16.5145 C.ar    1  UNL1        0.1053
     40 N          63.0573   83.9639   15.5799 N.ar    1  UNL1       -0.2350
     41 C          64.2950   84.6381   15.0666 C.ar    1  UNL1        0.1343
     42 S          64.3692   86.0032   15.6840 S.2     1  UNL1       -0.0652
     43 C          66.1704   90.3452   14.4093 C.3     1  UNL1        0.0460
     44 C          66.8966   91.6037   14.7821 C.ar    1  UNL1       -0.0205
     45 C          66.4467   92.9220   14.2257 C.ar    1  UNL1       -0.0042
     46 C          67.1728   94.1804   14.5984 C.ar    1  UNL1       -0.0003
     47 C          68.3489   94.1206   15.5276 C.ar    1  UNL1       -0.0000
     48 C          68.7988   92.8023   16.0840 C.ar    1  UNL1       -0.0003
     49 C          68.0726   91.5438   15.7112 C.ar    1  UNL1       -0.0042
@<TRIPOS>BOND
     1    19    20    1
     2    20    21    1
     3    20     6    1
     4     6     7    1
     5     7     8   am
     6     8     9    2
     7     8    10   am
     8    10    11    1
     9    10    13    1
    10    13    14    1
    11    14    15   ar
    12    15    16   ar
    13    16    17   ar
    14    17    18   ar
    15     6     2    1
    16     2     3    2
    17     2     4   am
    18     4     1    1
    19     1    29    1
    20    29    30    1
    21    31    30    1
    22    31    43    1
    23    43    44    1
    24    44    45   ar
    25    45    46   ar
    26    46    47   ar
    27    47    48   ar
    28    48    49   ar
    29    31    32    1
    30    32    33   am
    31    33    34    2
    32    33    36    1
    33    36    37    1
    34    37    38    1
    35    38    39   ar
    36    39    40   ar
    37    40    41   ar
    38    41    42   ar
    39     1    22    1
    40    22    23    1
    41    23    24   ar
    42    24    25   ar
    43    25    26   ar
    44    26    27   ar
    45    27    28   ar
    46    18    14   ar
    47    49    44   ar
    48    42    38   ar
    49    28    23   ar
    50     7    12    1
    51     4     5    1
    52    32    35    1
