@<TRIPOS>MOLECULE
*****
 22 24 0 0 0
SMALL
GASTEIGER

@<TRIPOS>ATOM
      1 C          62.3308   86.0882   10.1328 C.ar    1  UNL1        0.0261
      2 C          63.0238   85.2348    9.1123 C.ar    1  UNL1        0.0077
      3 C          63.5861   83.9014    9.5070 C.ar    1  UNL1        0.0202
      4 C          63.4554   83.4214   10.9221 C.ar    1  UNL1        0.0893
      5 N          63.9066   82.1619   11.6005 N.ar    1  UNL1       -0.2245
      6 C          63.4925   82.2370   13.0402 C.ar    1  UNL1        0.1567
      7 N          63.7418   81.1901   14.0852 N.pl3   1  UNL1       -0.3375
      8 S          62.7854   83.5429   13.2516 S.2     1  UNL1       -0.0520
      9 C          62.7625   84.2749   11.9426 C.ar    1  UNL1        0.0502
     10 C          62.2002   85.6083   11.5479 C.ar    1  UNL1        0.0142
     11 H          64.2174   80.3614   13.8481 H       1  UNL1        0.1442
     12 H          63.4297   81.3317   15.0081 H       1  UNL1        0.1442
     13 S          61.7685   87.4217    9.7381 S.3     1  UNL1       -0.1088
     14 C          61.4441   88.4401   10.7906 C.3     1  UNL1        0.0884
     15 C          64.4609   91.5996   11.8703 C.ar    1  UNL1        0.0684
     16 C          63.7938   91.6274   10.5271 C.ar    1  UNL1        0.0100
     17 C          62.7882   90.5742   10.1671 C.ar    1  UNL1       -0.0027
     18 C          62.4497   89.4933   11.1504 C.ar    1  UNL1       -0.0110
     19 C          63.1168   89.4655   12.4937 C.ar    1  UNL1       -0.0027
     20 C          64.1224   90.5187   12.8536 C.ar    1  UNL1        0.0100
     21 N          66.4721   93.7061   12.5900 N.1     1  UNL1       -0.1908
     22 C          65.4665   92.6529   12.2302 C.1     1  UNL1        0.1004
@<TRIPOS>BOND
     1    21    22    3
     2    22    15    1
     3    15    16   ar
     4    16    17   ar
     5    17    18   ar
     6    18    14    1
     7    14    13    1
     8    13     1    1
     9     1     2   ar
    10     2     3   ar
    11     3     4   ar
    12     4     5   ar
    13     5     6   ar
    14     6     7    1
    15     6     8   ar
    16     8     9   ar
    17     9    10   ar
    18    18    19   ar
    19    19    20   ar
    20    20    15   ar
    21    10     1   ar
    22     9     4   ar
    23     7    11    1
    24     7    12    1
@<TRIPOS>MOLECULE
*****
 22 24 0 0 0
SMALL
GASTEIGER

@<TRIPOS>ATOM
      1 C          61.9850   90.1379   10.5722 C.ar    1  UNL1        0.0261
      2 C          61.8642   89.7057   12.0035 C.ar    1  UNL1        0.0077
      3 C          62.8273   90.2275   13.0282 C.ar    1  UNL1        0.0202
      4 C          63.9111   91.1815   12.6217 C.ar    1  UNL1        0.0893
      5 N          64.9978   91.8582   13.4035 N.ar    1  UNL1       -0.2245
      6 C          65.7902   92.7086   12.4554 C.ar    1  UNL1        0.1567
      7 N          66.9720   93.5607   12.8123 N.pl3   1  UNL1       -0.3375
      8 S          65.1932   92.5574   11.0876 S.2     1  UNL1       -0.0520
      9 C          64.0319   91.6136   11.1904 C.ar    1  UNL1        0.0502
     10 C          63.0688   91.0918   10.1657 C.ar    1  UNL1        0.0142
     11 H          67.2912   93.5947   13.7430 H       1  UNL1        0.1442
     12 H          67.4285   94.0859   12.1158 H       1  UNL1        0.1442
     13 S          61.0218   89.6161    9.5474 S.3     1  UNL1       -0.1088
     14 C          60.4008   88.2620    9.7227 C.3     1  UNL1        0.0884
     15 C          63.0165   84.6306   10.1923 C.ar    1  UNL1        0.0684
     16 C          62.8690   85.2799    8.8482 C.ar    1  UNL1        0.0100
     17 C          61.9971   86.4903    8.6917 C.ar    1  UNL1       -0.0027
     18 C          61.2727   87.0515    9.8792 C.ar    1  UNL1       -0.0110
     19 C          61.4202   86.4022   11.2233 C.ar    1  UNL1       -0.0027
     20 C          62.2921   85.1917   11.3799 C.ar    1  UNL1        0.0100
     21 N          64.7604   82.2096   10.5053 N.1     1  UNL1       -0.1908
     22 C          63.8885   83.4200   10.3488 C.1     1  UNL1        0.1004
@<TRIPOS>BOND
     1    21    22    3
     2    22    15    1
     3    15    16   ar
     4    16    17   ar
     5    17    18   ar
     6    18    14    1
     7    14    13    1
     8    13     1    1
     9     1     2   ar
    10     2     3   ar
    11     3     4   ar
    12     4     5   ar
    13     5     6   ar
    14     6     7    1
    15     6     8   ar
    16     8     9   ar
    17     9    10   ar
    18    18    19   ar
    19    19    20   ar
    20    20    15   ar
    21    10     1   ar
    22     9     4   ar
    23     7    11    1
    24     7    12    1
@<TRIPOS>MOLECULE
*****
 22 24 0 0 0
SMALL
GASTEIGER

@<TRIPOS>ATOM
      1 C          63.3722   90.6328   12.1863 C.ar    1  UNL1        0.0261
      2 C          63.8041   91.4540   11.0077 C.ar    1  UNL1        0.0077
      3 C          65.0567   92.2755   11.0846 C.ar    1  UNL1        0.0202
      4 C          65.8775   92.2759   12.3401 C.ar    1  UNL1        0.0893
      5 N          67.1495   92.9810   12.7075 N.ar    1  UNL1       -0.2245
      6 C          67.5037   92.5956   14.1132 C.ar    1  UNL1        0.1567
      7 N          68.7009   93.0702   14.8825 N.pl3   1  UNL1       -0.3375
      8 S          66.4507   91.6523   14.6146 S.2     1  UNL1       -0.0520
      9 C          65.4456   91.4547   13.5187 C.ar    1  UNL1        0.0502
     10 C          64.1930   90.6332   13.4418 C.ar    1  UNL1        0.0142
     11 H          69.3392   93.6926   14.4651 H       1  UNL1        0.1442
     12 H          68.8482   92.7591   15.8049 H       1  UNL1        0.1442
     13 S          62.1195   89.8112   12.1094 S.3     1  UNL1       -0.1088
     14 C          61.2407   89.8954   10.8968 C.3     1  UNL1        0.0884
     15 C          61.0500   86.4468    8.0123 C.ar    1  UNL1        0.0684
     16 C          62.1400   86.5046    9.0412 C.ar    1  UNL1        0.0100
     17 C          62.2036   87.6541   10.0027 C.ar    1  UNL1       -0.0027
     18 C          61.1771   88.7458    9.9353 C.ar    1  UNL1       -0.0110
     19 C          60.0872   88.6880    8.9064 C.ar    1  UNL1       -0.0027
     20 C          60.0236   87.5385    7.9449 C.ar    1  UNL1        0.0100
     21 N          60.9230   84.1477    6.0892 N.1     1  UNL1       -0.1908
     22 C          60.9865   85.2972    7.0507 C.1     1  UNL1        0.1004
@<TRIPOS>BOND
     1    21    22    3
     2    22    15    1
     3    15    16   ar
     4    16    17   ar
     5    17    18   ar
     6    18    14    1
     7    14    13    1
     8    13     1    1
     9     1     2   ar
    10     2     3   ar
    11     3     4   ar
    12     4     5   ar
    13     5     6   ar
    14     6     7    1
    15     6     8   ar
    16     8     9   ar
    17     9    10   ar
    18    18    19   ar
    19    19    20   ar
    20    20    15   ar
    21    10     1   ar
    22     9     4   ar
    23     7    11    1
    24     7    12    1
@<TRIPOS>MOLECULE
*****
 22 24 0 0 0
SMALL
GASTEIGER

@<TRIPOS>ATOM
      1 C          63.2091   83.7152   12.7435 C.ar    1  UNL1        0.0261
      2 C          64.0001   83.1864   11.5839 C.ar    1  UNL1        0.0077
      3 C          63.8063   83.7695   10.2156 C.ar    1  UNL1        0.0202
      4 C          62.8214   84.8814   10.0068 C.ar    1  UNL1        0.0893
      5 N          62.4187   85.6488    8.7824 N.ar    1  UNL1       -0.2245
      6 C          61.3787   86.6518    9.1853 C.ar    1  UNL1        0.1567
      7 N          60.6982   87.6305    8.2747 N.pl3   1  UNL1       -0.3375
      8 S          61.1387   86.5044   10.6586 S.2     1  UNL1       -0.0520
      9 C          62.0304   85.4103   11.1664 C.ar    1  UNL1        0.0502
     10 C          62.2242   84.8271   12.5347 C.ar    1  UNL1        0.0142
     11 H          60.9245   87.6511    7.3168 H       1  UNL1        0.1442
     12 H          60.0252   88.2523    8.6350 H       1  UNL1        0.1442
     13 S          63.4028   83.1320   14.1119 S.3     1  UNL1       -0.1088
     14 C          64.2880   83.8259   15.1043 C.3     1  UNL1        0.0884
     15 C          63.6399   88.1797   16.0393 C.ar    1  UNL1        0.0684
     16 C          64.4630   87.7824   14.8499 C.ar    1  UNL1        0.0100
     17 C          64.6790   86.3312   14.5382 C.ar    1  UNL1       -0.0027
     18 C          64.0720   85.2772   15.4160 C.ar    1  UNL1       -0.0110
     19 C          63.2489   85.6744   16.6054 C.ar    1  UNL1       -0.0027
     20 C          63.0329   87.1256   16.9171 C.ar    1  UNL1        0.0100
     21 N          63.2078   91.0822   16.6627 N.1     1  UNL1       -0.1908
     22 C          63.4239   89.6310   16.3510 C.1     1  UNL1        0.1004
@<TRIPOS>BOND
     1    21    22    3
     2    22    15    1
     3    15    16   ar
     4    16    17   ar
     5    17    18   ar
     6    18    14    1
     7    14    13    1
     8    13     1    1
     9     1     2   ar
    10     2     3   ar
    11     3     4   ar
    12     4     5   ar
    13     5     6   ar
    14     6     7    1
    15     6     8   ar
    16     8     9   ar
    17     9    10   ar
    18    18    19   ar
    19    19    20   ar
    20    20    15   ar
    21    10     1   ar
    22     9     4   ar
    23     7    11    1
    24     7    12    1
@<TRIPOS>MOLECULE
*****
 22 24 0 0 0
SMALL
GASTEIGER

@<TRIPOS>ATOM
      1 C          63.7851   88.4987   15.5808 C.ar    1  UNL1        0.0261
      2 C          63.0991   88.1186   16.8593 C.ar    1  UNL1        0.0077
      3 C          62.8285   86.6753   17.1650 C.ar    1  UNL1        0.0202
      4 C          63.2441   85.6119   16.1920 C.ar    1  UNL1        0.0893
      5 N          63.1117   84.1180   16.2208 N.ar    1  UNL1       -0.2245
      6 C          63.7160   83.5748   14.9599 C.ar    1  UNL1        0.1567
      7 N          63.7998   82.1275   14.5746 N.pl3   1  UNL1       -0.3375
      8 S          64.2219   84.7330   14.1520 S.2     1  UNL1       -0.0520
      9 C          63.9302   85.9920   14.9134 C.ar    1  UNL1        0.0502
     10 C          64.2007   87.4354   14.6078 C.ar    1  UNL1        0.0142
     11 H          63.4373   81.4365   15.1749 H       1  UNL1        0.1442
     12 H          64.2173   81.8686   13.7214 H       1  UNL1        0.1442
     13 S          64.0557   89.9421   15.2751 S.3     1  UNL1       -0.1088
     14 C          63.5255   90.5534   14.0121 C.3     1  UNL1        0.0884
     15 C          66.3048   92.7475   11.2352 C.ar    1  UNL1        0.0684
     16 C          64.9786   92.2563   10.7352 C.ar    1  UNL1        0.0100
     17 C          64.0522   91.5250   11.6608 C.ar    1  UNL1       -0.0027
     18 C          64.4519   91.2848   13.0864 C.ar    1  UNL1       -0.0110
     19 C          65.7781   91.7760   13.5864 C.ar    1  UNL1       -0.0027
     20 C          66.7045   92.5074   12.6608 C.ar    1  UNL1        0.0100
     21 N          68.1575   94.2103    9.3838 N.1     1  UNL1       -0.1908
     22 C          67.2312   93.4789   10.3095 C.1     1  UNL1        0.1004
@<TRIPOS>BOND
     1    21    22    3
     2    22    15    1
     3    15    16   ar
     4    16    17   ar
     5    17    18   ar
     6    18    14    1
     7    14    13    1
     8    13     1    1
     9     1     2   ar
    10     2     3   ar
    11     3     4   ar
    12     4     5   ar
    13     5     6   ar
    14     6     7    1
    15     6     8   ar
    16     8     9   ar
    17     9    10   ar
    18    18    19   ar
    19    19    20   ar
    20    20    15   ar
    21    10     1   ar
    22     9     4   ar
    23     7    11    1
    24     7    12    1
@<TRIPOS>MOLECULE
*****
 22 24 0 0 0
SMALL
GASTEIGER

@<TRIPOS>ATOM
      1 C          62.9868   83.4661   13.7678 C.ar    1  UNL1        0.0261
      2 C          63.7380   82.2940   13.2095 C.ar    1  UNL1        0.0077
      3 C          64.0277   82.2202   11.7396 C.ar    1  UNL1        0.0202
      4 C          63.5662   83.3184   10.8281 C.ar    1  UNL1        0.0893
      5 N          63.7041   83.5187    9.3479 N.ar    1  UNL1       -0.2245
      6 C          63.0381   84.8146    8.9915 C.ar    1  UNL1        0.1567
      7 N          62.9389   85.4061    7.6165 N.pl3   1  UNL1       -0.3375
      8 S          62.4886   85.4152   10.2514 S.2     1  UNL1       -0.0520
      9 C          62.8150   84.4906   11.3865 C.ar    1  UNL1        0.0502
     10 C          62.5253   84.5644   12.8563 C.ar    1  UNL1        0.0142
     11 H          63.3334   84.9339    6.8479 H       1  UNL1        0.1442
     12 H          62.4794   86.2664    7.4827 H       1  UNL1        0.1442
     13 S          62.6970   83.5400   15.2378 S.3     1  UNL1       -0.1088
     14 C          63.6288   84.2820   16.1495 C.3     1  UNL1        0.0884
     15 C          63.5192   88.7780   16.3045 C.ar    1  UNL1        0.0684
     16 C          62.8968   87.9741   17.4074 C.ar    1  UNL1        0.0100
     17 C          62.9334   86.4755   17.3558 C.ar    1  UNL1       -0.0027
     18 C          63.5922   85.7807   16.2012 C.ar    1  UNL1       -0.0110
     19 C          64.2146   86.5846   15.0982 C.ar    1  UNL1       -0.0027
     20 C          64.1781   88.0832   15.1499 C.ar    1  UNL1        0.0100
     21 N          63.4461   91.7753   16.4079 N.1     1  UNL1       -0.1908
     22 C          63.4826   90.2767   16.3561 C.1     1  UNL1        0.1004
@<TRIPOS>BOND
     1    21    22    3
     2    22    15    1
     3    15    16   ar
     4    16    17   ar
     5    17    18   ar
     6    18    14    1
     7    14    13    1
     8    13     1    1
     9     1     2   ar
    10     2     3   ar
    11     3     4   ar
    12     4     5   ar
    13     5     6   ar
    14     6     7    1
    15     6     8   ar
    16     8     9   ar
    17     9    10   ar
    18    18    19   ar
    19    19    20   ar
    20    20    15   ar
    21    10     1   ar
    22     9     4   ar
    23     7    11    1
    24     7    12    1
@<TRIPOS>MOLECULE
*****
 22 24 0 0 0
SMALL
GASTEIGER

@<TRIPOS>ATOM
      1 C          62.6890   86.0925   11.8554 C.ar    1  UNL1        0.0261
      2 C          63.4402   86.4298   13.1092 C.ar    1  UNL1        0.0077
      3 C          63.8393   85.3407   14.0603 C.ar    1  UNL1        0.0202
      4 C          63.4873   83.9144   13.7576 C.ar    1  UNL1        0.0893
      5 N          63.7453   82.6374   14.5012 N.ar    1  UNL1       -0.2245
      6 C          63.1536   81.5109   13.7069 C.ar    1  UNL1        0.1567
      7 N          63.1809   80.0586   14.0812 N.pl3   1  UNL1       -0.3375
      8 S          62.5300   82.0917   12.4725 S.2     1  UNL1       -0.0520
      9 C          62.7362   83.5771   12.5038 C.ar    1  UNL1        0.0502
     10 C          62.3370   84.6661   11.5527 C.ar    1  UNL1        0.0142
     11 H          63.6167   79.7737   14.9168 H       1  UNL1        0.1442
     12 H          62.7628   79.3903   13.4914 H       1  UNL1        0.1442
     13 S          62.2899   87.1815   10.9042 S.3     1  UNL1       -0.1088
     14 C          61.8088   88.5002   11.4331 C.3     1  UNL1        0.0884
     15 C          64.6502   91.9770   11.7300 C.ar    1  UNL1        0.0684
     16 C          64.4200   91.0929   12.9196 C.ar    1  UNL1        0.0100
     17 C          63.4729   89.9339   12.8207 C.ar    1  UNL1       -0.0027
     18 C          62.7560   89.6592   11.5321 C.ar    1  UNL1       -0.0110
     19 C          62.9862   90.5433   10.3425 C.ar    1  UNL1       -0.0027
     20 C          63.9333   91.7023   10.4414 C.ar    1  UNL1        0.0100
     21 N          66.5444   94.2950   11.9280 N.1     1  UNL1       -0.1908
     22 C          65.5973   93.1360   11.8290 C.1     1  UNL1        0.1004
@<TRIPOS>BOND
     1    21    22    3
     2    22    15    1
     3    15    16   ar
     4    16    17   ar
     5    17    18   ar
     6    18    14    1
     7    14    13    1
     8    13     1    1
     9     1     2   ar
    10     2     3   ar
    11     3     4   ar
    12     4     5   ar
    13     5     6   ar
    14     6     7    1
    15     6     8   ar
    16     8     9   ar
    17     9    10   ar
    18    18    19   ar
    19    19    20   ar
    20    20    15   ar
    21    10     1   ar
    22     9     4   ar
    23     7    11    1
    24     7    12    1
@<TRIPOS>MOLECULE
*****
 22 24 0 0 0
SMALL
GASTEIGER

@<TRIPOS>ATOM
      1 C          62.9188   84.3547   10.6551 C.ar    1  UNL1        0.0261
      2 C          63.2495   84.6715    9.2267 C.ar    1  UNL1        0.0077
      3 C          62.7541   85.9444    8.6068 C.ar    1  UNL1        0.0202
      4 C          61.9281   86.9005    9.4153 C.ar    1  UNL1        0.0893
      5 N          61.3047   88.2224    9.0773 N.ar    1  UNL1       -0.2245
      6 C          60.5888   88.7225   10.2969 C.ar    1  UNL1        0.1567
      7 N          59.8259   90.0094   10.4057 N.pl3   1  UNL1       -0.3375
      8 S          60.7697   87.7097   11.3885 S.2     1  UNL1       -0.0520
      9 C          61.5974   86.5837   10.8436 C.ar    1  UNL1        0.0502
     10 C          62.0928   85.3108   11.4635 C.ar    1  UNL1        0.0142
     11 H          59.7635   90.6118    9.6296 H       1  UNL1        0.1442
     12 H          59.3876   90.2516   11.2534 H       1  UNL1        0.1442
     13 S          63.4142   83.0817   11.2751 S.3     1  UNL1       -0.1088
     14 C          64.3640   83.1324   12.4348 C.3     1  UNL1        0.0884
     15 C          63.2398   85.3806   16.1674 C.ar    1  UNL1        0.0684
     16 C          64.4601   85.7784   15.3911 C.ar    1  UNL1        0.0100
     17 C          64.8349   85.0290   14.1469 C.ar    1  UNL1       -0.0027
     18 C          63.9893   83.8819   13.6790 C.ar    1  UNL1       -0.0110
     19 C          62.7690   83.4840   14.4553 C.ar    1  UNL1       -0.0027
     20 C          62.3942   84.2334   15.6995 C.ar    1  UNL1        0.0100
     21 N          62.4903   86.8794   18.6557 N.1     1  UNL1       -0.1908
     22 C          62.8650   86.1300   17.4116 C.1     1  UNL1        0.1004
@<TRIPOS>BOND
     1    21    22    3
     2    22    15    1
     3    15    16   ar
     4    16    17   ar
     5    17    18   ar
     6    18    14    1
     7    14    13    1
     8    13     1    1
     9     1     2   ar
    10     2     3   ar
    11     3     4   ar
    12     4     5   ar
    13     5     6   ar
    14     6     7    1
    15     6     8   ar
    16     8     9   ar
    17     9    10   ar
    18    18    19   ar
    19    19    20   ar
    20    20    15   ar
    21    10     1   ar
    22     9     4   ar
    23     7    11    1
    24     7    12    1
@<TRIPOS>MOLECULE
*****
 22 24 0 0 0
SMALL
GASTEIGER

@<TRIPOS>ATOM
      1 C          64.0691   85.5022   15.5357 C.ar    1  UNL1        0.0261
      2 C          63.2621   85.7014   16.7843 C.ar    1  UNL1        0.0077
      3 C          62.8744   87.0852   17.2139 C.ar    1  UNL1        0.0202
      4 C          63.2938   88.2699   16.3949 C.ar    1  UNL1        0.0893
      5 N          63.0617   89.7419   16.5670 N.ar    1  UNL1       -0.2245
      6 C          63.7254   90.4523   15.4248 C.ar    1  UNL1        0.1567
      7 N          63.7437   91.9353   15.2000 N.pl3   1  UNL1       -0.3375
      8 S          64.3675   89.4195   14.5468 S.2     1  UNL1       -0.0520
      9 C          64.1008   88.0707   15.1464 C.ar    1  UNL1        0.0502
     10 C          64.4884   86.6868   14.7168 C.ar    1  UNL1        0.0142
     11 H          63.2910   92.5353   15.8359 H       1  UNL1        0.1442
     12 H          64.2084   92.3087   14.4165 H       1  UNL1        0.1442
     13 S          64.4568   84.1183   15.1061 S.3     1  UNL1       -0.1088
     14 C          63.5350   83.3176   14.2348 C.3     1  UNL1        0.0884
     15 C          63.1267   84.3245    9.8679 C.ar    1  UNL1        0.0684
     16 C          62.3724   85.1170   10.8941 C.ar    1  UNL1        0.0100
     17 C          62.5085   84.7814   12.3497 C.ar    1  UNL1       -0.0027
     18 C          63.3989   83.6533   12.7791 C.ar    1  UNL1       -0.0110
     19 C          64.1532   82.8608   11.7530 C.ar    1  UNL1       -0.0027
     20 C          64.0171   83.1964   10.2974 C.ar    1  UNL1        0.0100
     21 N          62.8544   84.9959    6.9567 N.1     1  UNL1       -0.1908
     22 C          62.9905   84.6602    8.4123 C.1     1  UNL1        0.1004
@<TRIPOS>BOND
     1    21    22    3
     2    22    15    1
     3    15    16   ar
     4    16    17   ar
     5    17    18   ar
     6    18    14    1
     7    14    13    1
     8    13     1    1
     9     1     2   ar
    10     2     3   ar
    11     3     4   ar
    12     4     5   ar
    13     5     6   ar
    14     6     7    1
    15     6     8   ar
    16     8     9   ar
    17     9    10   ar
    18    18    19   ar
    19    19    20   ar
    20    20    15   ar
    21    10     1   ar
    22     9     4   ar
    23     7    11    1
    24     7    12    1
