@<TRIPOS>MOLECULE
*****
 62 69 0 0 0
SMALL
GASTEIGER

@<TRIPOS>ATOM
      1 N          65.4773   89.8896   13.8438 N.3     1  UNL1       -0.1862
      2 C          65.8927   88.7698   14.7511 C.3     1  UNL1        0.1775
      3 C          65.1334   87.4761   14.7420 C.2     1  UNL1        0.2452
      4 O          65.5489   86.3563   15.6495 O.2     1  UNL1       -0.2732
      5 N          63.9587   87.3024   13.8256 N.am    1  UNL1       -0.2541
      6 C          63.1995   86.0088   13.8165 C.3     1  UNL1        0.1577
      7 C          62.0248   85.8350   12.9001 C.2     1  UNL1        0.2445
      8 O          61.2656   84.5414   12.8910 O.2     1  UNL1       -0.2731
      9 N          61.6094   86.9549   11.9926 N.am    1  UNL1       -0.2705
     10 C          62.3686   88.2485   12.0017 C.3     1  UNL1        0.1359
     11 C          63.5434   88.4222   12.9182 C.3     1  UNL1        0.1908
     12 N          64.3026   89.7158   12.9273 N.am    1  UNL1       -0.1863
     13 C          63.8872   90.8357   12.0199 C.2     1  UNL1        0.3191
     14 O          62.7125   90.6619   11.1034 O.2     1  UNL1       -0.2512
     15 N          64.6464   92.1293   12.0289 N.am    1  UNL1       -0.2836
     16 H          65.4174   92.2433   12.6305 H       1  UNL1        0.1513
     17 C          66.2365   91.1832   13.8528 C.3     1  UNL1        0.1188
     18 C          67.1160   92.7205   15.7537 C.2     1  UNL1       -0.0034
     19 C          67.2279   91.4633   14.9431 C.2     1  UNL1       -0.0071
     20 C          63.6149   84.8889   14.7239 C.3     1  UNL1        0.0556
     21 C          63.3522   83.4661   14.3280 C.ar    1  UNL1       -0.0198
     22 C          62.1960   82.7221   14.9276 C.ar    1  UNL1       -0.0011
     23 C          61.9334   81.2993   14.5318 C.ar    1  UNL1        0.0363
     24 C          62.8269   80.6206   13.5363 C.ar    1  UNL1        0.1337
     25 O          62.5642   79.1978   13.1405 O.3     1  UNL1       -0.5055
     26 C          63.9831   81.3647   12.9367 C.ar    1  UNL1        0.0363
     27 C          64.2458   82.7874   13.3325 C.ar    1  UNL1       -0.0011
     28 H          61.8420   78.7330   13.5150 H       1  UNL1        0.2922
     29 C          60.4347   86.7811   11.0762 C.3     1  UNL1        0.1217
     30 C          60.5854   87.0398    9.6063 C.ar    1  UNL1        0.0135
     31 C          61.1087   85.9613    8.7047 C.ar    1  UNL1       -0.0012
     32 C          61.2594   86.2200    7.2349 C.ar    1  UNL1       -0.0002
     33 C          60.8869   87.5573    6.6667 C.ar    1  UNL1        0.0015
     34 C          60.3637   88.6358    7.5684 C.ar    1  UNL1        0.0170
     35 C          59.9184   90.0423    7.2973 C.ar    1  UNL1        0.0186
     36 C          59.4925   90.6529    8.5995 C.ar    1  UNL1        0.0759
     37 N          59.6746   89.6237    9.6754 N.ar    1  UNL1       -0.3242
     38 C          59.3714   89.8087   11.1327 C.3     1  UNL1        0.1305
     39 C          60.2130   88.3771    9.0381 C.ar    1  UNL1        0.0575
     40 C          59.9020   90.7194    5.9588 C.ar    1  UNL1        0.0015
     41 C          61.1716   90.8561    5.1718 C.ar    1  UNL1        0.0002
     42 C          61.1551   91.5332    3.8334 C.ar    1  UNL1        0.0045
     43 C          59.8691   92.0736    3.2820 C.ar    1  UNL1        0.0537
     44 C          58.5994   91.9369    4.0691 C.ar    1  UNL1        0.0045
     45 C          58.6160   91.2599    5.4074 C.ar    1  UNL1        0.0002
     46 C          59.8526   92.7507    1.9437 C.2     1  UNL1        0.2495
     47 O          59.7355   94.2437    1.8599 O.2     1  UNL1       -0.2698
     48 N          59.9534   91.9347    0.6890 N.am    1  UNL1       -0.2804
     49 H          60.0303   90.9548    0.7439 H       1  UNL1        0.1552
     50 C          59.9370   92.6119   -0.6493 C.ar    1  UNL1        0.0505
     51 C          58.6540   92.7211   -1.4188 C.ar    1  UNL1        0.0147
     52 C          58.6375   93.3983   -2.7572 C.ar    1  UNL1        0.0013
     53 C          59.9039   93.9661   -3.3260 C.ar    1  UNL1        0.0001
     54 C          61.1869   93.8569   -2.5566 C.ar    1  UNL1        0.0013
     55 C          61.2034   93.1797   -1.2182 C.ar    1  UNL1        0.0147
     56 C          64.2310   93.2491   11.1216 C.3     1  UNL1        0.1177
     57 C          65.2714   94.1024   10.4586 C.ar    1  UNL1       -0.0025
     58 C          65.0650   95.5837   10.3444 C.ar    1  UNL1       -0.0026
     59 C          66.1054   96.4370    9.6814 C.ar    1  UNL1       -0.0003
     60 C          67.3520   95.8090    9.1325 C.ar    1  UNL1       -0.0000
     61 C          67.5584   94.3276    9.2466 C.ar    1  UNL1       -0.0003
     62 C          66.5181   93.4743    9.9096 C.ar    1  UNL1       -0.0026
@<TRIPOS>BOND
     1    18    19    2
     2    19    17    1
     3    17     1    1
     4     1     2    1
     5     2     3    1
     6     3     4    2
     7     3     5   am
     8     5     6    1
     9     6    20    1
    10    20    21    1
    11    21    22   ar
    12    22    23   ar
    13    23    24   ar
    14    24    25    1
    15    24    26   ar
    16    26    27   ar
    17     6     7    1
    18     7     8    2
    19     7     9   am
    20     9    29    1
    21    29    30    1
    22    30    31   ar
    23    31    32   ar
    24    32    33   ar
    25    33    34   ar
    26    34    35   ar
    27    35    40    1
    28    40    41   ar
    29    41    42   ar
    30    42    43   ar
    31    43    46    1
    32    46    47    2
    33    46    48   am
    34    48    50    1
    35    50    51   ar
    36    51    52   ar
    37    52    53   ar
    38    53    54   ar
    39    54    55   ar
    40    43    44   ar
    41    44    45   ar
    42    35    36   ar
    43    36    37   ar
    44    37    38    1
    45    37    39   ar
    46     9    10    1
    47    11    10    1
    48    11    12    1
    49    12    13   am
    50    13    14    2
    51    13    15   am
    52    15    56    1
    53    56    57    1
    54    57    58   ar
    55    58    59   ar
    56    59    60   ar
    57    60    61   ar
    58    61    62   ar
    59    12     1    1
    60    62    57   ar
    61    11     5    1
    62    27    21   ar
    63    39    30   ar
    64    39    34   ar
    65    45    40   ar
    66    55    50   ar
    67    25    28    1
    68    48    49    1
    69    15    16    1
@<TRIPOS>MOLECULE
*****
 62 69 0 0 0
SMALL
GASTEIGER

@<TRIPOS>ATOM
      1 N          65.5941   89.2589   14.5411 N.3     1  UNL1       -0.1862
      2 C          65.8462   88.0006   15.3177 C.3     1  UNL1        0.1775
      3 C          65.0115   86.7810   15.0612 C.2     1  UNL1        0.2452
      4 O          65.2637   85.5226   15.8378 O.2     1  UNL1       -0.2732
      5 N          63.9248   86.8196   14.0280 N.am    1  UNL1       -0.2541
      6 C          63.0901   85.6000   13.7715 C.3     1  UNL1        0.1577
      7 C          62.0034   85.6386   12.7384 C.2     1  UNL1        0.2445
      8 O          61.1687   84.4190   12.4818 O.2     1  UNL1       -0.2731
      9 N          61.7512   86.8969   11.9617 N.am    1  UNL1       -0.2705
     10 C          62.5859   88.1166   12.2183 C.3     1  UNL1        0.1359
     11 C          63.6727   88.0779   13.2515 C.3     1  UNL1        0.1908
     12 N          64.5074   89.2975   13.5080 N.am    1  UNL1       -0.1863
     13 C          64.2552   90.5558   12.7314 C.2     1  UNL1        0.3191
     14 O          63.1684   90.5945   11.6982 O.2     1  UNL1       -0.2512
     15 N          65.0899   91.7755   12.9879 N.am    1  UNL1       -0.2836
     16 H          65.8032   91.7501   13.6660 H       1  UNL1        0.1513
     17 C          66.4288   90.4785   14.7977 C.3     1  UNL1        0.1188
     18 C          66.7730   92.7337   16.0409 C.2     1  UNL1       -0.0034
     19 C          65.8798   91.6024   15.6255 C.2     1  UNL1       -0.0071
     20 C          63.3422   84.3417   14.5481 C.3     1  UNL1        0.0556
     21 C          63.1435   83.0054   13.8961 C.ar    1  UNL1       -0.0198
     22 C          62.1422   82.0392   14.4561 C.ar    1  UNL1       -0.0011
     23 C          61.9435   80.7030   13.8042 C.ar    1  UNL1        0.0363
     24 C          62.7461   80.3330   12.5923 C.ar    1  UNL1        0.1337
     25 O          62.5474   78.9967   11.9404 O.3     1  UNL1       -0.5055
     26 C          63.7475   81.2992   12.0322 C.ar    1  UNL1        0.0363
     27 C          63.9462   82.6355   12.6842 C.ar    1  UNL1       -0.0011
     28 H          61.9219   78.3932   12.2902 H       1  UNL1        0.2922
     29 C          60.6644   86.9356   10.9286 C.3     1  UNL1        0.1217
     30 C          60.3518   88.2183   10.2164 C.ar    1  UNL1        0.0135
     31 C          59.9857   89.4424   11.0022 C.ar    1  UNL1       -0.0012
     32 C          59.6731   90.7250   10.2902 C.ar    1  UNL1       -0.0002
     33 C          59.7266   90.7836    8.7923 C.ar    1  UNL1        0.0015
     34 C          60.0928   89.5595    8.0065 C.ar    1  UNL1        0.0170
     35 C          60.2267   89.3158    6.5325 C.ar    1  UNL1        0.0186
     36 C          60.6220   87.8826    6.3336 C.ar    1  UNL1        0.0759
     37 N          60.7325   87.2405    7.6846 N.ar    1  UNL1       -0.3242
     38 C          61.1047   85.8127    7.9544 C.3     1  UNL1        0.1305
     39 C          60.4054   88.2768    8.7186 C.ar    1  UNL1        0.0575
     40 C          60.0043   90.3278    5.4478 C.ar    1  UNL1        0.0015
     41 C          61.1584   90.7991    4.6136 C.ar    1  UNL1        0.0002
     42 C          60.9360   91.8110    3.5290 C.ar    1  UNL1        0.0045
     43 C          59.5594   92.3517    3.2785 C.ar    1  UNL1        0.0537
     44 C          58.4052   91.8804    4.1127 C.ar    1  UNL1        0.0045
     45 C          58.6277   90.8685    5.1973 C.ar    1  UNL1        0.0002
     46 C          59.3370   93.3636    2.1938 C.2     1  UNL1        0.2495
     47 O          59.6727   94.8058    2.4334 O.2     1  UNL1       -0.2698
     48 N          58.7789   92.9334    0.8696 N.am    1  UNL1       -0.2804
     49 H          58.5586   91.9869    0.7124 H       1  UNL1        0.1552
     50 C          58.5566   93.9454   -0.2150 C.ar    1  UNL1        0.0505
     51 C          59.7018   94.7781   -0.7100 C.ar    1  UNL1        0.0147
     52 C          59.4796   95.7901   -1.7946 C.ar    1  UNL1        0.0013
     53 C          58.1120   95.9695   -2.3842 C.ar    1  UNL1        0.0001
     54 C          56.9667   95.1369   -1.8891 C.ar    1  UNL1        0.0013
     55 C          57.1890   94.1248   -0.8045 C.ar    1  UNL1        0.0147
     56 C          64.8378   93.0338   12.2113 C.3     1  UNL1        0.1177
     57 C          65.8263   93.4887   11.1789 C.ar    1  UNL1       -0.0025
     58 C          65.8134   94.9114   10.7037 C.ar    1  UNL1       -0.0026
     59 C          66.8018   95.3663    9.6713 C.ar    1  UNL1       -0.0003
     60 C          67.8032   94.3985    9.1140 C.ar    1  UNL1       -0.0000
     61 C          67.8162   92.9758    9.5891 C.ar    1  UNL1       -0.0003
     62 C          66.8277   92.5209   10.6216 C.ar    1  UNL1       -0.0026
@<TRIPOS>BOND
     1    18    19    2
     2    19    17    1
     3    17     1    1
     4     1     2    1
     5     2     3    1
     6     3     4    2
     7     3     5   am
     8     5     6    1
     9     6    20    1
    10    20    21    1
    11    21    22   ar
    12    22    23   ar
    13    23    24   ar
    14    24    25    1
    15    24    26   ar
    16    26    27   ar
    17     6     7    1
    18     7     8    2
    19     7     9   am
    20     9    29    1
    21    29    30    1
    22    30    31   ar
    23    31    32   ar
    24    32    33   ar
    25    33    34   ar
    26    34    35   ar
    27    35    40    1
    28    40    41   ar
    29    41    42   ar
    30    42    43   ar
    31    43    46    1
    32    46    47    2
    33    46    48   am
    34    48    50    1
    35    50    51   ar
    36    51    52   ar
    37    52    53   ar
    38    53    54   ar
    39    54    55   ar
    40    43    44   ar
    41    44    45   ar
    42    35    36   ar
    43    36    37   ar
    44    37    38    1
    45    37    39   ar
    46     9    10    1
    47    11    10    1
    48    11    12    1
    49    12    13   am
    50    13    14    2
    51    13    15   am
    52    15    56    1
    53    56    57    1
    54    57    58   ar
    55    58    59   ar
    56    59    60   ar
    57    60    61   ar
    58    61    62   ar
    59    12     1    1
    60    62    57   ar
    61    11     5    1
    62    27    21   ar
    63    39    30   ar
    64    39    34   ar
    65    45    40   ar
    66    55    50   ar
    67    25    28    1
    68    48    49    1
    69    15    16    1
@<TRIPOS>MOLECULE
*****
 62 69 0 0 0
SMALL
GASTEIGER

@<TRIPOS>ATOM
      1 N          64.5245   83.1421   13.3701 N.3     1  UNL1       -0.1862
      2 C          65.1221   83.9879   14.4552 C.3     1  UNL1        0.1775
      3 C          64.7087   85.4224   14.6015 C.2     1  UNL1        0.2452
      4 O          65.3063   86.2682   15.6867 O.2     1  UNL1       -0.2732
      5 N          63.6978   86.0111   13.6626 N.am    1  UNL1       -0.2541
      6 C          63.2844   87.4456   13.8089 C.3     1  UNL1        0.1577
      7 C          62.2735   88.0343   12.8701 C.2     1  UNL1        0.2445
      8 O          61.8601   89.4688   13.0164 O.2     1  UNL1       -0.2731
      9 N          61.6759   87.1885   11.7849 N.am    1  UNL1       -0.2705
     10 C          62.0893   85.7540   11.6386 C.3     1  UNL1        0.1359
     11 C          63.1002   85.1653   12.5775 C.3     1  UNL1        0.1908
     12 N          63.5136   83.7308   12.4312 N.am    1  UNL1       -0.1863
     13 C          62.9160   82.8850   11.3460 C.2     1  UNL1        0.3191
     14 O          61.9051   83.4737   10.4072 O.2     1  UNL1       -0.2512
     15 N          63.3293   81.4506   11.1997 N.am    1  UNL1       -0.2836
     16 H          63.9929   81.0642   11.8159 H       1  UNL1        0.1513
     17 C          64.9379   81.7077   13.2238 C.3     1  UNL1        0.1188
     18 C          62.7829   80.5166   14.0527 C.2     1  UNL1       -0.0034
     19 C          64.2771   80.6482   14.0549 C.2     1  UNL1       -0.0071
     20 C          63.8820   88.2914   14.8941 C.3     1  UNL1        0.0556
     21 C          64.4085   89.6591   14.5748 C.ar    1  UNL1       -0.0198
     22 C          64.6195   90.0671   13.1468 C.ar    1  UNL1       -0.0011
     23 C          65.1461   91.4348   12.8275 C.ar    1  UNL1        0.0363
     24 C          65.4617   92.3946   13.9361 C.ar    1  UNL1        0.1337
     25 O          65.9883   93.7624   13.6168 O.3     1  UNL1       -0.5055
     26 C          65.2507   91.9867   15.3642 C.ar    1  UNL1        0.0363
     27 C          64.7242   90.6190   15.6835 C.ar    1  UNL1       -0.0011
     28 H          66.1201   94.0172   12.7248 H       1  UNL1        0.2922
     29 C          60.6650   87.7772   10.8461 C.3     1  UNL1        0.1217
     30 C          61.0554   88.9003    9.9315 C.ar    1  UNL1        0.0135
     31 C          62.0908   89.8952   10.3653 C.ar    1  UNL1       -0.0012
     32 C          62.4812   91.0182    9.4508 C.ar    1  UNL1       -0.0002
     33 C          61.8364   91.1463    8.1026 C.ar    1  UNL1        0.0015
     34 C          60.8011   90.1513    7.6689 C.ar    1  UNL1        0.0170
     35 C          59.9991   90.0224    6.4078 C.ar    1  UNL1        0.0186
     36 C          59.1131   88.8196    6.5429 C.ar    1  UNL1        0.0759
     37 N          59.3674   88.2053    7.8874 N.ar    1  UNL1       -0.3242
     38 C          58.6963   86.9826    8.4392 C.3     1  UNL1        0.1305
     39 C          60.4106   89.0283    8.5833 C.ar    1  UNL1        0.0575
     40 C          60.0708   90.9358    5.2201 C.ar    1  UNL1        0.0015
     41 C          58.8412   91.6574    4.7537 C.ar    1  UNL1        0.0002
     42 C          58.9129   92.5708    3.5660 C.ar    1  UNL1        0.0045
     43 C          60.2140   92.7627    2.8448 C.ar    1  UNL1        0.0537
     44 C          61.4436   92.0411    3.3112 C.ar    1  UNL1        0.0045
     45 C          61.3719   91.1277    4.4989 C.ar    1  UNL1        0.0002
     46 C          60.2856   93.6761    1.6572 C.2     1  UNL1        0.2495
     47 O          59.8261   95.0990    1.7766 O.2     1  UNL1       -0.2698
     48 N          60.8167   93.1667    0.3500 N.am    1  UNL1       -0.2804
     49 H          61.1183   92.2328    0.2716 H       1  UNL1        0.1552
     50 C          60.8882   94.0802   -0.8375 C.ar    1  UNL1        0.0505
     51 C          62.1539   94.8294   -1.1322 C.ar    1  UNL1        0.0147
     52 C          62.2255   95.7430   -2.3197 C.ar    1  UNL1        0.0013
     53 C          61.0315   95.9072   -3.2127 C.ar    1  UNL1        0.0001
     54 C          59.7659   95.1580   -2.9180 C.ar    1  UNL1        0.0013
     55 C          59.6942   94.2445   -1.7305 C.ar    1  UNL1        0.0147
     56 C          62.7318   80.6048   10.1146 C.3     1  UNL1        0.1177
     57 C          63.0847   79.1501   10.0174 C.ar    1  UNL1       -0.0025
     58 C          62.4907   78.1681   10.9831 C.ar    1  UNL1       -0.0026
     59 C          62.8436   76.7134   10.8859 C.ar    1  UNL1       -0.0003
     60 C          63.7904   76.2408    9.8229 C.ar    1  UNL1       -0.0000
     61 C          64.3844   77.2229    8.8570 C.ar    1  UNL1       -0.0003
     62 C          64.0316   78.6775    8.9543 C.ar    1  UNL1       -0.0026
@<TRIPOS>BOND
     1    18    19    2
     2    19    17    1
     3    17     1    1
     4     1     2    1
     5     2     3    1
     6     3     4    2
     7     3     5   am
     8     5     6    1
     9     6    20    1
    10    20    21    1
    11    21    22   ar
    12    22    23   ar
    13    23    24   ar
    14    24    25    1
    15    24    26   ar
    16    26    27   ar
    17     6     7    1
    18     7     8    2
    19     7     9   am
    20     9    29    1
    21    29    30    1
    22    30    31   ar
    23    31    32   ar
    24    32    33   ar
    25    33    34   ar
    26    34    35   ar
    27    35    40    1
    28    40    41   ar
    29    41    42   ar
    30    42    43   ar
    31    43    46    1
    32    46    47    2
    33    46    48   am
    34    48    50    1
    35    50    51   ar
    36    51    52   ar
    37    52    53   ar
    38    53    54   ar
    39    54    55   ar
    40    43    44   ar
    41    44    45   ar
    42    35    36   ar
    43    36    37   ar
    44    37    38    1
    45    37    39   ar
    46     9    10    1
    47    11    10    1
    48    11    12    1
    49    12    13   am
    50    13    14    2
    51    13    15   am
    52    15    56    1
    53    56    57    1
    54    57    58   ar
    55    58    59   ar
    56    59    60   ar
    57    60    61   ar
    58    61    62   ar
    59    12     1    1
    60    62    57   ar
    61    11     5    1
    62    27    21   ar
    63    39    30   ar
    64    39    34   ar
    65    45    40   ar
    66    55    50   ar
    67    25    28    1
    68    48    49    1
    69    15    16    1
