@<TRIPOS>MOLECULE
*****
 18 19 0 0 0
SMALL
GASTEIGER

@<TRIPOS>ATOM
      1 C          62.5964   85.5373   11.9452 C.2     1  UNL1        0.1898
      2 N          61.6437   85.1724   10.8456 N.2     1  UNL1       -0.2199
      3 C          61.1963   86.4402   10.1802 C.2     1  UNL1        0.1003
      4 C          60.2605   86.6972    9.0365 C.2     1  UNL1        0.0569
      5 C          60.0009   88.1026    8.5811 C.2     1  UNL1        0.1364
      6 C          60.6772   89.2510    9.2696 C.2     1  UNL1        0.0172
      7 C          61.6129   88.9940   10.4133 C.3     1  UNL1        0.0765
      8 C          61.8725   87.5886   10.8686 C.2     1  UNL1        0.0833
      9 N          62.7378   87.0305   11.9594 N.2     1  UNL1       -0.2238
     10 O          59.0651   88.3597    7.4373 O.2     1  UNL1       -0.4717
     11 C          59.3341   89.4891    6.4875 C.3     1  UNL1        0.2525
     12 S          63.2866   84.5774   12.8684 S.3     1  UNL1       -0.0757
     13 C          64.3834   83.6954   12.3500 C.3     1  UNL1        0.0652
     14 C          64.0658   82.5930   11.3836 C.3     1  UNL1        0.0121
     15 C          62.9286   81.6555   11.6626 C.3     1  UNL1        0.0009
     16 C          62.9241   80.8347   12.9181 C.3     1  UNL1        0.0000
     17 C          60.6091   80.7855   14.0964 C.3     1  UNL1        0.0000
     18 C          62.0426   81.2262   14.0669 C.3     1  UNL1        0.0000
@<TRIPOS>BOND
     1    17    18    1
     2    18    16    1
     3    16    15    1
     4    15    14    1
     5    14    13    1
     6    13    12    1
     7    12     1    1
     8     1     2    2
     9     2     3    1
    10     3     4    2
    11     4     5    1
    12     5    10    1
    13    10    11    1
    14     5     6    2
    15     6     7    1
    16     7     8    1
    17     8     9    2
    18     9     1    1
    19     8     3    1
@<TRIPOS>MOLECULE
*****
 18 19 0 0 0
SMALL
GASTEIGER

@<TRIPOS>ATOM
      1 C          61.1027   87.1310   10.2793 C.2     1  UNL1        0.1898
      2 N          61.3488   86.4558   11.5959 N.2     1  UNL1       -0.2199
      3 C          62.2762   85.3010   11.3586 C.2     1  UNL1        0.1003
      4 C          62.8650   84.2796   12.2859 C.2     1  UNL1        0.0569
      5 C          63.7809   83.2196   11.7498 C.2     1  UNL1        0.1364
      6 C          64.1081   83.1811   10.2864 C.2     1  UNL1        0.0172
      7 C          63.5193   84.2025    9.3591 C.3     1  UNL1        0.0765
      8 C          62.6033   85.2625    9.8952 C.2     1  UNL1        0.0833
      9 N          61.8781   86.3935    9.2282 N.2     1  UNL1       -0.2238
     10 O          64.3698   82.1981   12.6771 O.2     1  UNL1       -0.4717
     11 C          63.4721   81.2528   13.4190 C.3     1  UNL1        0.2525
     12 S          60.2339   88.3327   10.0534 S.3     1  UNL1       -0.0757
     13 C          60.7497   89.7030   10.3792 C.3     1  UNL1        0.0652
     14 C          62.1996   90.0273   10.1727 C.3     1  UNL1        0.0121
     15 C          63.0754   90.3316   11.3520 C.3     1  UNL1        0.0009
     16 C          63.0622   89.4278   12.5490 C.3     1  UNL1        0.0000
     17 C          64.3424   88.5097   14.6150 C.3     1  UNL1        0.0000
     18 C          64.0670   89.6209   13.6458 C.3     1  UNL1        0.0000
@<TRIPOS>BOND
     1    17    18    1
     2    18    16    1
     3    16    15    1
     4    15    14    1
     5    14    13    1
     6    13    12    1
     7    12     1    1
     8     1     2    2
     9     2     3    1
    10     3     4    2
    11     4     5    1
    12     5    10    1
    13    10    11    1
    14     5     6    2
    15     6     7    1
    16     7     8    1
    17     8     9    2
    18     9     1    1
    19     8     3    1
@<TRIPOS>MOLECULE
*****
 18 19 0 0 0
SMALL
GASTEIGER

@<TRIPOS>ATOM
      1 C          63.7045   85.2593   15.1841 C.2     1  UNL1        0.1898
      2 N          64.2041   86.2728   14.1976 N.2     1  UNL1       -0.2199
      3 C          64.0190   87.6348   14.7982 C.2     1  UNL1        0.1003
      4 C          64.3302   89.0092   14.2841 C.2     1  UNL1        0.0569
      5 C          64.0274   90.2118   15.1278 C.2     1  UNL1        0.1364
      6 C          63.4134   90.0401   16.4856 C.2     1  UNL1        0.0172
      7 C          63.1022   88.6658   16.9996 C.3     1  UNL1        0.0765
      8 C          63.4050   87.4631   16.1559 C.2     1  UNL1        0.0833
      9 N          63.2106   85.9950   16.3944 N.2     1  UNL1       -0.2238
     10 O          64.3386   91.5862   14.6138 O.2     1  UNL1       -0.4717
     11 C          65.1937   91.7545   13.3930 C.3     1  UNL1        0.2525
     12 S          63.6996   83.7715   14.9938 S.3     1  UNL1       -0.0757
     13 C          62.4234   82.9993   15.1518 C.3     1  UNL1        0.0652
     14 C          62.1284   81.8438   14.2420 C.3     1  UNL1        0.0121
     15 C          63.1804   81.3473   13.2949 C.3     1  UNL1        0.0009
     16 C          63.0334   81.5821   11.8207 C.3     1  UNL1        0.0000
     17 C          64.2812   83.1367   10.1545 C.3     1  UNL1        0.0000
     18 C          63.2752   82.9485   11.2511 C.3     1  UNL1        0.0000
@<TRIPOS>BOND
     1    17    18    1
     2    18    16    1
     3    16    15    1
     4    15    14    1
     5    14    13    1
     6    13    12    1
     7    12     1    1
     8     1     2    2
     9     2     3    1
    10     3     4    2
    11     4     5    1
    12     5    10    1
    13    10    11    1
    14     5     6    2
    15     6     7    1
    16     7     8    1
    17     8     9    2
    18     9     1    1
    19     8     3    1
@<TRIPOS>MOLECULE
*****
 18 19 0 0 0
SMALL
GASTEIGER

@<TRIPOS>ATOM
      1 C          61.7331   88.7816   10.3704 C.2     1  UNL1        0.1898
      2 N          62.3521   90.1369   10.1970 N.2     1  UNL1       -0.2199
      3 C          63.2016   90.4160   11.4013 C.2     1  UNL1        0.1003
      4 C          64.0486   91.5944   11.7808 C.2     1  UNL1        0.0569
      5 C          64.8016   91.5900   13.0781 C.2     1  UNL1        0.1364
      6 C          64.7076   90.4072   13.9958 C.2     1  UNL1        0.0172
      7 C          63.8606   89.2289   13.6163 C.3     1  UNL1        0.0765
      8 C          63.1076   89.2333   12.3191 C.2     1  UNL1        0.0833
      9 N          62.2000   88.2232   11.6819 N.2     1  UNL1       -0.2238
     10 O          65.6486   92.7684   13.4577 O.2     1  UNL1       -0.4717
     11 C          66.1355   93.7138   12.3998 C.3     1  UNL1        0.2525
     12 S          60.8093   88.1038    9.4023 S.3     1  UNL1       -0.0757
     13 C          60.8551   86.6134    9.2400 C.3     1  UNL1        0.0652
     14 C          61.9958   85.9737    8.5053 C.3     1  UNL1        0.0121
     15 C          62.9847   85.1251    9.2483 C.3     1  UNL1        0.0009
     16 C          62.7289   84.7539   10.6790 C.3     1  UNL1        0.0000
     17 C          64.1633   82.6072   10.3894 C.3     1  UNL1        0.0000
     18 C          63.3893   83.5434   11.2693 C.3     1  UNL1        0.0000
@<TRIPOS>BOND
     1    17    18    1
     2    18    16    1
     3    16    15    1
     4    15    14    1
     5    14    13    1
     6    13    12    1
     7    12     1    1
     8     1     2    2
     9     2     3    1
    10     3     4    2
    11     4     5    1
    12     5    10    1
    13    10    11    1
    14     5     6    2
    15     6     7    1
    16     7     8    1
    17     8     9    2
    18     9     1    1
    19     8     3    1
@<TRIPOS>MOLECULE
*****
 18 19 0 0 0
SMALL
GASTEIGER

@<TRIPOS>ATOM
      1 C          61.4396   89.9776   11.1048 C.2     1  UNL1        0.1898
      2 N          62.4749   91.0303   10.8400 N.2     1  UNL1       -0.2199
      3 C          63.4737   90.9898   11.9584 C.2     1  UNL1        0.1003
      4 C          64.7097   91.7950   12.2299 C.2     1  UNL1        0.0569
      5 C          65.5278   91.5226   13.4572 C.2     1  UNL1        0.1364
      6 C          65.1097   90.4449   14.4132 C.2     1  UNL1        0.0172
      7 C          63.8737   89.6397   14.1418 C.3     1  UNL1        0.0765
      8 C          63.0556   89.9122   12.9144 C.2     1  UNL1        0.0833
      9 N          61.7985   89.2866   12.3868 N.2     1  UNL1       -0.2238
     10 O          66.7639   92.3278   13.7287 O.2     1  UNL1       -0.4717
     11 C          66.6488   93.7050   14.3119 C.3     1  UNL1        0.2525
     12 S          60.2536   89.6700   10.2394 S.3     1  UNL1       -0.0757
     13 C          60.4386   88.9253    8.9506 C.3     1  UNL1        0.0652
     14 C          59.6951   87.6447    8.7110 C.3     1  UNL1        0.0121
     15 C          60.4453   86.3499    8.6077 C.3     1  UNL1        0.0009
     16 C          61.6506   86.1109    9.4680 C.3     1  UNL1        0.0000
     17 C          62.5293   85.2016   11.7376 C.3     1  UNL1        0.0000
     18 C          61.4935   85.9488   10.9509 C.3     1  UNL1        0.0000
@<TRIPOS>BOND
     1    17    18    1
     2    18    16    1
     3    16    15    1
     4    15    14    1
     5    14    13    1
     6    13    12    1
     7    12     1    1
     8     1     2    2
     9     2     3    1
    10     3     4    2
    11     4     5    1
    12     5    10    1
    13    10    11    1
    14     5     6    2
    15     6     7    1
    16     7     8    1
    17     8     9    2
    18     9     1    1
    19     8     3    1
@<TRIPOS>MOLECULE
*****
 18 19 0 0 0
SMALL
GASTEIGER

@<TRIPOS>ATOM
      1 C          63.9401   85.5162   14.2967 C.2     1  UNL1        0.1898
      2 N          64.5305   86.6836   15.0306 N.2     1  UNL1       -0.2199
      3 C          64.2243   87.9261   14.2479 C.2     1  UNL1        0.1003
      4 C          64.5547   89.3696   14.4866 C.2     1  UNL1        0.0569
      5 C          64.1054   90.4136   13.5078 C.2     1  UNL1        0.1364
      6 C          63.3257   90.0141   12.2902 C.2     1  UNL1        0.0172
      7 C          62.9953   88.5705   12.0515 C.3     1  UNL1        0.0765
      8 C          63.4446   87.5266   13.0303 C.2     1  UNL1        0.0833
      9 N          63.2690   86.0372   13.0605 N.2     1  UNL1       -0.2238
     10 O          64.4358   91.8572   13.7465 O.2     1  UNL1       -0.4717
     11 C          65.8221   92.2503   14.1633 C.3     1  UNL1        0.2525
     12 S          64.0087   84.0800   14.7241 S.3     1  UNL1       -0.0757
     13 C          62.7551   83.3506   15.1066 C.3     1  UNL1        0.0652
     14 C          62.2143   82.2710   14.2166 C.3     1  UNL1        0.0121
     15 C          63.1502   81.4501   13.3797 C.3     1  UNL1        0.0009
     16 C          63.2158   81.6663   11.8968 C.3     1  UNL1        0.0000
     17 C          63.9636   83.3403   10.0560 C.3     1  UNL1        0.0000
     18 C          64.2529   82.5822   11.3176 C.3     1  UNL1        0.0000
@<TRIPOS>BOND
     1    17    18    1
     2    18    16    1
     3    16    15    1
     4    15    14    1
     5    14    13    1
     6    13    12    1
     7    12     1    1
     8     1     2    2
     9     2     3    1
    10     3     4    2
    11     4     5    1
    12     5    10    1
    13    10    11    1
    14     5     6    2
    15     6     7    1
    16     7     8    1
    17     8     9    2
    18     9     1    1
    19     8     3    1
@<TRIPOS>MOLECULE
*****
 18 19 0 0 0
SMALL
GASTEIGER

@<TRIPOS>ATOM
      1 C          61.8095   89.6651   11.5337 C.2     1  UNL1        0.1898
      2 N          62.5502   90.5731   10.5973 N.2     1  UNL1       -0.2199
      3 C          63.6979   91.1787   11.3498 C.2     1  UNL1        0.1003
      4 C          64.7674   92.1472   10.9400 C.2     1  UNL1        0.0569
      5 C          65.8055   92.5819   11.9316 C.2     1  UNL1        0.1364
      6 C          65.7740   92.0481   13.3330 C.2     1  UNL1        0.0172
      7 C          64.7045   91.0797   13.7429 C.3     1  UNL1        0.0765
      8 C          63.6664   90.6450   12.7513 C.2     1  UNL1        0.0833
      9 N          62.4993   89.7095   12.8649 N.2     1  UNL1       -0.2238
     10 O          66.8752   93.5504   11.5217 O.2     1  UNL1       -0.4717
     11 C          66.9475   94.0318   10.1029 C.3     1  UNL1        0.2525
     12 S          60.5926   88.8550   11.1978 S.3     1  UNL1       -0.0757
     13 C          60.7357   87.4149   10.8034 C.3     1  UNL1        0.0652
     14 C          61.0614   87.0547    9.3842 C.3     1  UNL1        0.0121
     15 C          60.0020   86.4724    8.4961 C.3     1  UNL1        0.0009
     16 C          59.2535   87.3561    7.5428 C.3     1  UNL1        0.0000
     17 C          59.2406   89.6277    6.2820 C.3     1  UNL1        0.0000
     18 C          59.5186   88.8323    7.5230 C.3     1  UNL1        0.0000
@<TRIPOS>BOND
     1    17    18    1
     2    18    16    1
     3    16    15    1
     4    15    14    1
     5    14    13    1
     6    13    12    1
     7    12     1    1
     8     1     2    2
     9     2     3    1
    10     3     4    2
    11     4     5    1
    12     5    10    1
    13    10    11    1
    14     5     6    2
    15     6     7    1
    16     7     8    1
    17     8     9    2
    18     9     1    1
    19     8     3    1
@<TRIPOS>MOLECULE
*****
 18 19 0 0 0
SMALL
GASTEIGER

@<TRIPOS>ATOM
      1 C          61.5369   89.8663   11.1739 C.2     1  UNL1        0.1898
      2 N          62.1392   89.7292   12.5408 N.2     1  UNL1       -0.2199
      3 C          63.3826   90.5671   12.5856 C.2     1  UNL1        0.1003
      4 C          64.3850   90.8183   13.6728 C.2     1  UNL1        0.0569
      5 C          65.5535   91.7245   13.4208 C.2     1  UNL1        0.1364
      6 C          65.7195   92.3794   12.0816 C.2     1  UNL1        0.0172
      7 C          64.7171   92.1282   10.9944 C.3     1  UNL1        0.0765
      8 C          63.5487   91.2221   11.2464 C.2     1  UNL1        0.0833
      9 N          62.4079   90.7889   10.3739 N.2     1  UNL1       -0.2238
     10 O          66.5559   91.9757   14.5080 O.2     1  UNL1       -0.4717
     11 C          67.1825   93.3309   14.6518 C.3     1  UNL1        0.2525
     12 S          60.2835   89.1981   10.6917 S.3     1  UNL1       -0.0757
     13 C          60.1824   88.7300    9.2702 C.3     1  UNL1        0.0652
     14 C          59.9502   87.2780    8.9735 C.3     1  UNL1        0.0121
     15 C          60.9528   86.2529    9.4140 C.3     1  UNL1        0.0009
     16 C          62.3630   86.3165    8.9067 C.3     1  UNL1        0.0000
     17 C          62.3856   84.7787    6.8128 C.3     1  UNL1        0.0000
     18 C          62.9422   85.1558    8.1537 C.3     1  UNL1        0.0000
@<TRIPOS>BOND
     1    17    18    1
     2    18    16    1
     3    16    15    1
     4    15    14    1
     5    14    13    1
     6    13    12    1
     7    12     1    1
     8     1     2    2
     9     2     3    1
    10     3     4    2
    11     4     5    1
    12     5    10    1
    13    10    11    1
    14     5     6    2
    15     6     7    1
    16     7     8    1
    17     8     9    2
    18     9     1    1
    19     8     3    1
@<TRIPOS>MOLECULE
*****
 18 19 0 0 0
SMALL
GASTEIGER

@<TRIPOS>ATOM
      1 C          62.6228   85.9169   11.6415 C.2     1  UNL1        0.1898
      2 N          63.2654   86.6731   12.7663 N.2     1  UNL1       -0.2199
      3 C          63.2423   88.1317   12.4170 C.2     1  UNL1        0.1003
      4 C          63.7345   89.3464   13.1465 C.2     1  UNL1        0.0569
      5 C          63.5699   90.7063   12.5354 C.2     1  UNL1        0.1364
      6 C          62.9130   90.8515   11.1947 C.2     1  UNL1        0.0172
      7 C          62.4208   89.6368   10.4651 C.3     1  UNL1        0.0765
      8 C          62.5855   88.2770   11.0763 C.2     1  UNL1        0.0833
      9 N          62.2026   86.9081   10.5970 N.2     1  UNL1       -0.2238
     10 O          64.0621   91.9211   13.2649 O.2     1  UNL1       -0.4717
     11 C          65.5238   92.2580   13.2598 C.3     1  UNL1        0.2525
     12 S          62.4337   84.4304   11.5731 S.3     1  UNL1       -0.0757
     13 C          63.6252   83.5277   11.4487 C.3     1  UNL1        0.0652
     14 C          63.4536   82.1240   10.9486 C.3     1  UNL1        0.0121
     15 C          62.8743   81.0728   11.8483 C.3     1  UNL1        0.0009
     16 C          63.1270   81.1280   13.3259 C.3     1  UNL1        0.0000
     17 C          60.6723   80.7494   14.0879 C.3     1  UNL1        0.0000
     18 C          61.9992   81.4250   14.2691 C.3     1  UNL1        0.0000
@<TRIPOS>BOND
     1    17    18    1
     2    18    16    1
     3    16    15    1
     4    15    14    1
     5    14    13    1
     6    13    12    1
     7    12     1    1
     8     1     2    2
     9     2     3    1
    10     3     4    2
    11     4     5    1
    12     5    10    1
    13    10    11    1
    14     5     6    2
    15     6     7    1
    16     7     8    1
    17     8     9    2
    18     9     1    1
    19     8     3    1
