@<TRIPOS>MOLECULE
*****
 41 43 0 0 0
SMALL
GASTEIGER

@<TRIPOS>ATOM
      1 C          63.5551   87.2009   16.0367 C.3     1  UNL1        0.2120
      2 O          63.9977   87.0798   14.6086 O.3     1  UNL1       -0.3763
      3 H          63.9506   87.9490   14.1807 H       1  UNL1        0.2107
      4 C          63.1126   87.3221   17.4648 C.3     1  UNL1        0.4226
      5 F          62.6700   87.4432   18.8929 F       1  UNL1       -0.1675
      6 F          63.3452   88.8030   17.4112 F       1  UNL1       -0.1675
      7 F          62.8799   85.8412   17.5184 F       1  UNL1       -0.1675
      8 C          63.7888   85.7325   16.2337 C.3     1  UNL1        0.1307
      9 N          63.9229   84.8282   15.0444 N.am    1  UNL1       -0.2732
     10 C          62.6965   84.2793   14.3775 C.2     1  UNL1        0.2535
     11 O          61.3360   84.6347   14.8999 O.2     1  UNL1       -0.2697
     12 C          62.8306   83.3751   13.1883 C.ar    1  UNL1        0.1083
     13 C          63.1905   83.9461   11.8487 C.ar    1  UNL1        0.1467
     14 F          63.4162   85.4214   11.6985 F       1  UNL1       -0.2039
     15 C          63.3246   83.0419   10.6595 C.ar    1  UNL1        0.0299
     16 C          63.0989   81.5666   10.8097 C.ar    1  UNL1        0.0046
     17 C          62.7390   80.9955   12.1493 C.ar    1  UNL1        0.0299
     18 C          62.6049   81.8998   13.3385 C.ar    1  UNL1        0.1467
     19 F          62.2450   81.3287   14.6781 F       1  UNL1       -0.2039
     20 C          66.4700   85.3152   14.8860 C.3     1  UNL1        0.0233
     21 C          65.2833   84.4728   14.5220 C.3     1  UNL1        0.0939
     22 C          63.3215   88.6695   15.8397 C.3     1  UNL1        0.1269
     23 N          63.5254   89.2867   14.4879 N.am    1  UNL1       -0.2982
     24 C          64.0567   90.6848   14.3741 C.2     1  UNL1        0.2502
     25 O          64.3841   91.4658   15.6122 O.2     1  UNL1       -0.2700
     26 H          63.3105   88.7741   13.6753 H       1  UNL1        0.1498
     27 C          64.2606   91.3020   13.0223 C.ar    1  UNL1        0.1053
     28 C          63.5327   90.9304   11.7645 C.ar    1  UNL1        0.1278
     29 N          64.0505   91.7978   10.6557 N.ar    1  UNL1       -0.1622
     30 N          65.0984   92.7056   11.2282 N.ar    1  UNL1       -0.2163
     31 C          65.2283   92.3991   12.6908 C.ar    1  UNL1        0.1327
     32 N          66.1619   93.0717   13.6531 N.pl3   1  UNL1       -0.3424
     33 H          66.7626   93.7855   13.3386 H       1  UNL1        0.1437
     34 H          66.1740   92.7994   14.5991 H       1  UNL1        0.1437
     35 C          65.8794   93.7385   10.4711 C.ar    1  UNL1        0.0843
     36 C          65.4158   95.1649   10.4529 C.ar    1  UNL1        0.0215
     37 C          66.1968   96.1977    9.6958 C.ar    1  UNL1        0.0312
     38 C          67.4414   95.8042    8.9568 C.ar    1  UNL1        0.1402
     39 F          68.2223   96.8371    8.1996 F       1  UNL1       -0.2042
     40 C          67.9049   94.3777    8.9749 C.ar    1  UNL1        0.0312
     41 C          67.1240   93.3449    9.7321 C.ar    1  UNL1        0.0215
@<TRIPOS>BOND
     1    20    21    1
     2    21     9    1
     3     9     8    1
     4     8     1    1
     5     1     2    1
     6     1    22    1
     7    22    23    1
     8    23    24   am
     9    24    25    2
    10    24    27    1
    11    27    28   ar
    12    28    29   ar
    13    29    30   ar
    14    30    35    1
    15    35    36   ar
    16    36    37   ar
    17    37    38   ar
    18    38    39    1
    19    38    40   ar
    20    40    41   ar
    21    30    31   ar
    22    31    32    1
    23     1     4    1
    24     4     5    1
    25     4     6    1
    26     4     7    1
    27     9    10   am
    28    10    11    2
    29    10    12    1
    30    12    13   ar
    31    13    14    1
    32    13    15   ar
    33    15    16   ar
    34    16    17   ar
    35    17    18   ar
    36    18    19    1
    37    31    27   ar
    38    18    12   ar
    39    41    35   ar
    40     2     3    1
    41    23    26    1
    42    32    33    1
    43    32    34    1
@<TRIPOS>MOLECULE
*****
 41 43 0 0 0
SMALL
GASTEIGER

@<TRIPOS>ATOM
      1 C          63.4760   87.1137   16.1681 C.3     1  UNL1        0.2120
      2 O          63.9817   87.1116   14.7559 O.3     1  UNL1       -0.3763
      3 H          63.9151   88.0063   14.3873 H       1  UNL1        0.2107
      4 C          62.9702   87.1159   17.5803 C.3     1  UNL1        0.4226
      5 F          62.4645   87.1180   18.9924 F       1  UNL1       -0.1675
      6 F          63.3182   88.5698   17.7026 F       1  UNL1       -0.1675
      7 F          62.6223   85.6619   17.4579 F       1  UNL1       -0.1675
      8 C          63.7640   85.6455   16.2735 C.3     1  UNL1        0.1307
      9 N          63.9204   84.8208   15.0303 N.am    1  UNL1       -0.2732
     10 C          62.7081   84.2825   14.3298 C.2     1  UNL1        0.2535
     11 O          61.3394   84.5690   14.8726 O.2     1  UNL1       -0.2697
     12 C          62.8646   83.4578   13.0867 C.ar    1  UNL1        0.1083
     13 C          63.1337   84.1272   11.7716 C.ar    1  UNL1        0.1467
     14 F          63.2463   85.6213   11.6996 F       1  UNL1       -0.2039
     15 C          63.2901   83.3025   10.5285 C.ar    1  UNL1        0.0299
     16 C          63.1775   81.8085   10.6003 C.ar    1  UNL1        0.0046
     17 C          62.9084   81.1391   11.9155 C.ar    1  UNL1        0.0299
     18 C          62.7519   81.9638   13.1587 C.ar    1  UNL1        0.1467
     19 F          62.4828   81.2944   14.4738 F       1  UNL1       -0.2039
     20 C          66.4628   85.3492   14.9445 C.3     1  UNL1        0.0233
     21 C          65.2891   84.5343   14.4876 C.3     1  UNL1        0.0939
     22 C          63.1880   88.5821   16.0627 C.3     1  UNL1        0.1269
     23 N          64.1207   89.4766   15.3012 N.am    1  UNL1       -0.2982
     24 C          64.1773   90.9423   15.6150 C.2     1  UNL1        0.2502
     25 O          63.3012   91.5136   16.6902 O.2     1  UNL1       -0.2700
     26 H          64.6957   89.1016   14.5955 H       1  UNL1        0.1498
     27 C          65.1100   91.8368   14.8535 C.ar    1  UNL1        0.1053
     28 C          66.1970   92.6850   15.4445 C.ar    1  UNL1        0.1278
     29 N          66.8783   93.4126   14.3236 N.ar    1  UNL1       -0.1622
     30 N          66.2125   93.0141   13.0399 N.ar    1  UNL1       -0.2163
     31 C          65.1196   92.0402   13.3674 C.ar    1  UNL1        0.1327
     32 N          64.1982   91.3848   12.3819 N.pl3   1  UNL1       -0.3424
     33 H          64.2830   91.5833   11.4213 H       1  UNL1        0.1437
     34 H          63.5085   90.7562   12.6956 H       1  UNL1        0.1437
     35 C          66.5757   93.5035   11.6692 C.ar    1  UNL1        0.0843
     36 C          67.3401   92.6146   10.7336 C.ar    1  UNL1        0.0215
     37 C          67.7033   93.1041    9.3630 C.ar    1  UNL1        0.0312
     38 C          67.3021   94.4825    8.9281 C.ar    1  UNL1        0.1402
     39 F          67.6653   94.9719    7.5575 F       1  UNL1       -0.2042
     40 C          66.5377   95.3714    9.8638 C.ar    1  UNL1        0.0312
     41 C          66.1745   94.8819   11.2343 C.ar    1  UNL1        0.0215
@<TRIPOS>BOND
     1    20    21    1
     2    21     9    1
     3     9     8    1
     4     8     1    1
     5     1     2    1
     6     1    22    1
     7    22    23    1
     8    23    24   am
     9    24    25    2
    10    24    27    1
    11    27    28   ar
    12    28    29   ar
    13    29    30   ar
    14    30    35    1
    15    35    36   ar
    16    36    37   ar
    17    37    38   ar
    18    38    39    1
    19    38    40   ar
    20    40    41   ar
    21    30    31   ar
    22    31    32    1
    23     1     4    1
    24     4     5    1
    25     4     6    1
    26     4     7    1
    27     9    10   am
    28    10    11    2
    29    10    12    1
    30    12    13   ar
    31    13    14    1
    32    13    15   ar
    33    15    16   ar
    34    16    17   ar
    35    17    18   ar
    36    18    19    1
    37    31    27   ar
    38    18    12   ar
    39    41    35   ar
    40     2     3    1
    41    23    26    1
    42    32    33    1
    43    32    34    1
@<TRIPOS>MOLECULE
*****
 41 43 0 0 0
SMALL
GASTEIGER

@<TRIPOS>ATOM
      1 C          61.0184   87.8818    9.1341 C.3     1  UNL1        0.2120
      2 O          62.3541   87.9241    9.8153 O.3     1  UNL1       -0.3763
      3 H          62.5523   88.8354   10.0820 H       1  UNL1        0.2107
      4 C          59.6826   87.8395    8.4528 C.3     1  UNL1        0.4226
      5 F          58.3470   87.7972    7.7716 F       1  UNL1       -0.1675
      6 F          59.7467   89.3223    8.2354 F       1  UNL1       -0.1675
      7 F          59.6187   86.3567    8.6703 F       1  UNL1       -0.1675
      8 C          61.1654   86.4021    8.9376 C.3     1  UNL1        0.1307
      9 N          62.0696   85.6123    9.8369 N.am    1  UNL1       -0.2732
     10 C          61.8818   85.6662   11.3241 C.2     1  UNL1        0.2535
     11 O          60.7898   86.5100   11.9121 O.2     1  UNL1       -0.2697
     12 C          62.7860   84.8764   12.2234 C.ar    1  UNL1        0.1083
     13 C          63.6951   85.5854   13.1829 C.ar    1  UNL1        0.1467
     14 F          63.7001   87.0842   13.2432 F       1  UNL1       -0.2039
     15 C          64.5993   84.7956   14.0822 C.ar    1  UNL1        0.0299
     16 C          64.5944   83.2968   14.0220 C.ar    1  UNL1        0.0046
     17 C          63.6852   82.5878   13.0624 C.ar    1  UNL1        0.0299
     18 C          62.7810   83.3776   12.1631 C.ar    1  UNL1        0.1467
     19 F          61.8719   82.6686   11.2036 F       1  UNL1       -0.2039
     20 C          63.2684   84.6101    7.7611 C.3     1  UNL1        0.0233
     21 C          63.1616   84.7685    9.2490 C.3     1  UNL1        0.0939
     22 C          60.8713   89.3616    9.3306 C.3     1  UNL1        0.1269
     23 N          62.0634   90.1903    9.7072 N.am    1  UNL1       -0.2982
     24 C          62.4404   90.3496   11.1503 C.2     1  UNL1        0.2502
     25 O          61.6252   89.6802   12.2168 O.2     1  UNL1       -0.2700
     26 H          62.5985   90.6297    9.0073 H       1  UNL1        0.1498
     27 C          63.6326   91.1783   11.5270 C.ar    1  UNL1        0.1053
     28 C          64.2125   92.3049   10.7241 C.ar    1  UNL1        0.1278
     29 N          65.3925   92.8488   11.4736 N.ar    1  UNL1       -0.1622
     30 N          65.5419   92.0585   12.7396 N.ar    1  UNL1       -0.2163
     31 C          64.4543   91.0260   12.7727 C.ar    1  UNL1        0.1327
     32 N          64.2279   90.0183   13.8604 N.pl3   1  UNL1       -0.3424
     33 H          64.8244   89.9967   14.6433 H       1  UNL1        0.1437
     34 H          63.4830   89.3784   13.7913 H       1  UNL1        0.1437
     35 C          66.5943   92.2643   13.7886 C.ar    1  UNL1        0.0843
     36 C          66.2112   92.7791   15.1444 C.ar    1  UNL1        0.0215
     37 C          67.2636   92.9849   16.1933 C.ar    1  UNL1        0.0312
     38 C          68.6990   92.6760   15.8863 C.ar    1  UNL1        0.1402
     39 F          69.7513   92.8819   16.9353 F       1  UNL1       -0.2042
     40 C          69.0820   92.1613   14.5305 C.ar    1  UNL1        0.0312
     41 C          68.0297   91.9555   13.4817 C.ar    1  UNL1        0.0215
@<TRIPOS>BOND
     1    20    21    1
     2    21     9    1
     3     9     8    1
     4     8     1    1
     5     1     2    1
     6     1    22    1
     7    22    23    1
     8    23    24   am
     9    24    25    2
    10    24    27    1
    11    27    28   ar
    12    28    29   ar
    13    29    30   ar
    14    30    35    1
    15    35    36   ar
    16    36    37   ar
    17    37    38   ar
    18    38    39    1
    19    38    40   ar
    20    40    41   ar
    21    30    31   ar
    22    31    32    1
    23     1     4    1
    24     4     5    1
    25     4     6    1
    26     4     7    1
    27     9    10   am
    28    10    11    2
    29    10    12    1
    30    12    13   ar
    31    13    14    1
    32    13    15   ar
    33    15    16   ar
    34    16    17   ar
    35    17    18   ar
    36    18    19    1
    37    31    27   ar
    38    18    12   ar
    39    41    35   ar
    40     2     3    1
    41    23    26    1
    42    32    33    1
    43    32    34    1
@<TRIPOS>MOLECULE
*****
 41 43 0 0 0
SMALL
GASTEIGER

@<TRIPOS>ATOM
      1 C          63.6340   86.6811   15.8223 C.3     1  UNL1        0.2120
      2 O          64.3513   86.5770   14.5090 O.3     1  UNL1       -0.3763
      3 H          64.5515   87.4667   14.1785 H       1  UNL1        0.2107
      4 C          62.9167   86.7853   17.1355 C.3     1  UNL1        0.4226
      5 F          62.1995   86.8894   18.4487 F       1  UNL1       -0.1675
      6 F          62.4782   85.3564   17.0092 F       1  UNL1       -0.1675
      7 F          63.3553   88.2142   17.2618 F       1  UNL1       -0.1675
      8 C          63.5593   85.1851   15.9001 C.3     1  UNL1        0.1307
      9 N          63.2502   84.3846   14.6697 N.am    1  UNL1       -0.2732
     10 C          63.9651   83.0902   14.4178 C.2     1  UNL1        0.2535
     11 O          64.9891   82.5963   15.3963 O.2     1  UNL1       -0.2697
     12 C          63.6559   82.2898   13.1875 C.ar    1  UNL1        0.1083
     13 C          62.6871   81.1470   13.2601 C.ar    1  UNL1        0.1467
     14 F          62.0274   80.8046   14.5630 F       1  UNL1       -0.2039
     15 C          62.3780   80.3466   12.0297 C.ar    1  UNL1        0.0299
     16 C          63.0376   80.6889   10.7267 C.ar    1  UNL1        0.0046
     17 C          64.0065   81.8318   10.6542 C.ar    1  UNL1        0.0299
     18 C          64.3156   82.6322   11.8845 C.ar    1  UNL1        0.1467
     19 F          65.2844   83.7750   11.8119 F       1  UNL1       -0.2039
     20 C          62.6627   85.4828   12.3895 C.3     1  UNL1        0.0233
     21 C          62.2261   84.8786   13.6912 C.3     1  UNL1        0.0939
     22 C          63.7087   88.1773   15.7445 C.3     1  UNL1        0.1269
     23 N          63.9266   88.8495   14.4214 N.am    1  UNL1       -0.2982
     24 C          63.9732   90.3466   14.3394 C.2     1  UNL1        0.2502
     25 O          63.8019   91.1714   15.5805 O.2     1  UNL1       -0.2700
     26 H          64.0391   88.3082   13.6068 H       1  UNL1        0.1498
     27 C          64.1911   91.0188   13.0163 C.ar    1  UNL1        0.1053
     28 C          63.4747   90.7011   11.7373 C.ar    1  UNL1        0.1278
     29 N          64.0045   91.6128   10.6705 N.ar    1  UNL1       -0.1622
     30 N          65.0484   92.4939   11.2901 N.ar    1  UNL1       -0.2163
     31 C          65.1637   92.1268   12.7399 C.ar    1  UNL1        0.1327
     32 N          66.0891   92.7571   13.7381 N.pl3   1  UNL1       -0.3424
     33 H          66.6940   93.4821   13.4593 H       1  UNL1        0.1437
     34 H          66.0916   92.4458   14.6721 H       1  UNL1        0.1437
     35 C          65.8383   93.5558   10.5839 C.ar    1  UNL1        0.0843
     36 C          65.3512   94.9744   10.5791 C.ar    1  UNL1        0.0215
     37 C          66.1411   96.0362    9.8729 C.ar    1  UNL1        0.0312
     38 C          67.4181   95.6793    9.1716 C.ar    1  UNL1        0.1402
     39 F          68.2080   96.7411    8.4654 F       1  UNL1       -0.2042
     40 C          67.9052   94.2606    9.1764 C.ar    1  UNL1        0.0312
     41 C          67.1153   93.1989    9.8825 C.ar    1  UNL1        0.0215
@<TRIPOS>BOND
     1    20    21    1
     2    21     9    1
     3     9     8    1
     4     8     1    1
     5     1     2    1
     6     1    22    1
     7    22    23    1
     8    23    24   am
     9    24    25    2
    10    24    27    1
    11    27    28   ar
    12    28    29   ar
    13    29    30   ar
    14    30    35    1
    15    35    36   ar
    16    36    37   ar
    17    37    38   ar
    18    38    39    1
    19    38    40   ar
    20    40    41   ar
    21    30    31   ar
    22    31    32    1
    23     1     4    1
    24     4     5    1
    25     4     6    1
    26     4     7    1
    27     9    10   am
    28    10    11    2
    29    10    12    1
    30    12    13   ar
    31    13    14    1
    32    13    15   ar
    33    15    16   ar
    34    16    17   ar
    35    17    18   ar
    36    18    19    1
    37    31    27   ar
    38    18    12   ar
    39    41    35   ar
    40     2     3    1
    41    23    26    1
    42    32    33    1
    43    32    34    1
@<TRIPOS>MOLECULE
*****
 41 43 0 0 0
SMALL
GASTEIGER

@<TRIPOS>ATOM
      1 C          62.9633   84.2676   15.3599 C.3     1  UNL1        0.2120
      2 O          61.6494   84.8985   15.7144 O.3     1  UNL1       -0.3763
      3 H          61.7980   85.6263   16.3381 H       1  UNL1        0.2107
      4 C          64.2773   83.6367   15.0055 C.3     1  UNL1        0.4226
      5 F          65.5911   83.0058   14.6511 F       1  UNL1       -0.1675
      6 F          63.7705   82.3101   15.4886 F       1  UNL1       -0.1675
      7 F          64.7840   84.9633   14.5225 F       1  UNL1       -0.1675
      8 C          62.2551   83.2968   14.4623 C.3     1  UNL1        0.1307
      9 N          62.3497   83.4464   12.9727 N.am    1  UNL1       -0.2732
     10 C          62.4696   84.8112   12.3621 C.2     1  UNL1        0.2535
     11 O          62.4949   86.0265   13.2410 O.2     1  UNL1       -0.2697
     12 C          62.5641   84.9608   10.8726 C.ar    1  UNL1        0.1083
     13 C          61.5840   85.8304   10.1424 C.ar    1  UNL1        0.1467
     14 F          60.5093   86.5505   10.9018 F       1  UNL1       -0.2039
     15 C          61.6786   85.9799    8.6529 C.ar    1  UNL1        0.0299
     16 C          62.7532   85.2599    7.8934 C.ar    1  UNL1        0.0046
     17 C          63.7334   84.3903    8.6237 C.ar    1  UNL1        0.0299
     18 C          63.6388   84.2407   10.1132 C.ar    1  UNL1        0.1467
     19 F          64.6189   83.3711   10.8434 F       1  UNL1       -0.2039
     20 C          62.6834   80.8889   12.6593 C.3     1  UNL1        0.0233
     21 C          62.3244   82.2311   12.0938 C.3     1  UNL1        0.0939
     22 C          63.6716   85.2384   16.2577 C.3     1  UNL1        0.1269
     23 N          64.0081   86.6125   15.7593 N.am    1  UNL1       -0.2982
     24 C          63.2324   87.7990   16.2498 C.2     1  UNL1        0.2502
     25 O          62.1202   87.6114   17.2386 O.2     1  UNL1       -0.2700
     26 H          64.7381   86.7357   15.1103 H       1  UNL1        0.1498
     27 C          63.5689   89.1732   15.7514 C.ar    1  UNL1        0.1053
     28 C          63.5014   90.4416   16.5494 C.ar    1  UNL1        0.1278
     29 N          63.9227   91.5726   15.6587 N.ar    1  UNL1       -0.1622
     30 N          64.2507   91.0033   14.3103 N.ar    1  UNL1       -0.2163
     31 C          64.0321   89.5204   14.3676 C.ar    1  UNL1        0.1327
     32 N          64.2400   88.5543   13.2392 N.pl3   1  UNL1       -0.3424
     33 H          64.5478   88.8801   12.3626 H       1  UNL1        0.1437
     34 H          64.0688   87.5943   13.3751 H       1  UNL1        0.1437
     35 C          64.7158   91.7804   13.1145 C.ar    1  UNL1        0.0843
     36 C          65.8103   92.7958   13.2592 C.ar    1  UNL1        0.0215
     37 C          66.2753   93.5728   12.0634 C.ar    1  UNL1        0.0312
     38 C          65.6458   93.3344   10.7229 C.ar    1  UNL1        0.1402
     39 F          66.1108   94.1115    9.5271 F       1  UNL1       -0.2042
     40 C          64.5513   92.3190   10.5782 C.ar    1  UNL1        0.0312
     41 C          64.0863   91.5420   11.7740 C.ar    1  UNL1        0.0215
@<TRIPOS>BOND
     1    20    21    1
     2    21     9    1
     3     9     8    1
     4     8     1    1
     5     1     2    1
     6     1    22    1
     7    22    23    1
     8    23    24   am
     9    24    25    2
    10    24    27    1
    11    27    28   ar
    12    28    29   ar
    13    29    30   ar
    14    30    35    1
    15    35    36   ar
    16    36    37   ar
    17    37    38   ar
    18    38    39    1
    19    38    40   ar
    20    40    41   ar
    21    30    31   ar
    22    31    32    1
    23     1     4    1
    24     4     5    1
    25     4     6    1
    26     4     7    1
    27     9    10   am
    28    10    11    2
    29    10    12    1
    30    12    13   ar
    31    13    14    1
    32    13    15   ar
    33    15    16   ar
    34    16    17   ar
    35    17    18   ar
    36    18    19    1
    37    31    27   ar
    38    18    12   ar
    39    41    35   ar
    40     2     3    1
    41    23    26    1
    42    32    33    1
    43    32    34    1
@<TRIPOS>MOLECULE
*****
 41 43 0 0 0
SMALL
GASTEIGER

@<TRIPOS>ATOM
      1 C          62.9630   84.2765   15.3463 C.3     1  UNL1        0.2120
      2 O          61.6467   84.8979   15.7087 O.3     1  UNL1       -0.3763
      3 H          61.7934   85.6238   16.3352 H       1  UNL1        0.2107
      4 C          64.2792   83.6551   14.9838 C.3     1  UNL1        0.4226
      5 F          65.5954   83.0337   14.6214 F       1  UNL1       -0.1675
      6 F          64.7702   84.9835   14.4896 F       1  UNL1       -0.1675
      7 F          63.7882   82.3267   15.4781 F       1  UNL1       -0.1675
      8 C          62.2570   83.3056   14.4469 C.3     1  UNL1        0.1307
      9 N          62.3592   83.4522   12.9576 N.am    1  UNL1       -0.2732
     10 C          62.4624   84.8169   12.3436 C.2     1  UNL1        0.2535
     11 O          62.4633   86.0350   13.2189 O.2     1  UNL1       -0.2697
     12 C          62.5646   84.9635   10.8543 C.ar    1  UNL1        0.1083
     13 C          63.6527   84.2545   10.1038 C.ar    1  UNL1        0.1467
     14 F          64.6388   83.3990   10.8427 F       1  UNL1       -0.2039
     15 C          63.7549   84.4011    8.6145 C.ar    1  UNL1        0.0299
     16 C          62.7690   85.2566    7.8756 C.ar    1  UNL1        0.0046
     17 C          61.6807   85.9656    8.6261 C.ar    1  UNL1        0.0299
     18 C          61.5785   85.8190   10.1154 C.ar    1  UNL1        0.1467
     19 F          60.4903   86.5279   10.8658 F       1  UNL1       -0.2039
     20 C          62.6660   80.8884   12.6693 C.3     1  UNL1        0.0233
     21 C          62.3582   82.2341   12.0822 C.3     1  UNL1        0.0939
     22 C          63.6690   85.2474   16.2456 C.3     1  UNL1        0.1269
     23 N          64.0099   86.6203   15.7468 N.am    1  UNL1       -0.2982
     24 C          63.2375   87.8094   16.2361 C.2     1  UNL1        0.2502
     25 O          62.1241   87.6256   17.2244 O.2     1  UNL1       -0.2700
     26 H          64.7406   86.7410   15.0982 H       1  UNL1        0.1498
     27 C          63.5784   89.1823   15.7373 C.ar    1  UNL1        0.1053
     28 C          63.5199   90.4505   16.5362 C.ar    1  UNL1        0.1278
     29 N          63.9430   91.5801   15.6446 N.ar    1  UNL1       -0.1622
     30 N          64.2631   91.0100   14.2946 N.ar    1  UNL1       -0.2163
     31 C          64.0377   89.5281   14.3518 C.ar    1  UNL1        0.1327
     32 N          64.2368   88.5617   13.2221 N.pl3   1  UNL1       -0.3424
     33 H          64.5426   88.8866   12.3445 H       1  UNL1        0.1437
     34 H          64.0616   87.6025   13.3581 H       1  UNL1        0.1437
     35 C          64.7270   91.7857   13.0974 C.ar    1  UNL1        0.0843
     36 C          64.0895   91.5529   11.7597 C.ar    1  UNL1        0.0215
     37 C          64.5535   92.3285   10.5626 C.ar    1  UNL1        0.0312
     38 C          65.6550   93.3369   10.7032 C.ar    1  UNL1        0.1402
     39 F          66.1189   94.1126    9.5060 F       1  UNL1       -0.2042
     40 C          66.2925   93.5697   12.0408 C.ar    1  UNL1        0.0312
     41 C          65.8285   92.7941   13.2379 C.ar    1  UNL1        0.0215
@<TRIPOS>BOND
     1    20    21    1
     2    21     9    1
     3     9     8    1
     4     8     1    1
     5     1     2    1
     6     1    22    1
     7    22    23    1
     8    23    24   am
     9    24    25    2
    10    24    27    1
    11    27    28   ar
    12    28    29   ar
    13    29    30   ar
    14    30    35    1
    15    35    36   ar
    16    36    37   ar
    17    37    38   ar
    18    38    39    1
    19    38    40   ar
    20    40    41   ar
    21    30    31   ar
    22    31    32    1
    23     1     4    1
    24     4     5    1
    25     4     6    1
    26     4     7    1
    27     9    10   am
    28    10    11    2
    29    10    12    1
    30    12    13   ar
    31    13    14    1
    32    13    15   ar
    33    15    16   ar
    34    16    17   ar
    35    17    18   ar
    36    18    19    1
    37    31    27   ar
    38    18    12   ar
    39    41    35   ar
    40     2     3    1
    41    23    26    1
    42    32    33    1
    43    32    34    1
@<TRIPOS>MOLECULE
*****
 41 43 0 0 0
SMALL
GASTEIGER

@<TRIPOS>ATOM
      1 C          63.6370   85.7360   14.8278 C.3     1  UNL1        0.2120
      2 O          64.8688   86.0257   14.0223 O.3     1  UNL1       -0.3763
      3 H          65.2387   86.8804   14.2933 H       1  UNL1        0.2107
      4 C          62.4052   85.4463   15.6334 C.3     1  UNL1        0.4226
      5 F          61.1736   85.1566   16.4389 F       1  UNL1       -0.1675
      6 F          62.0760   84.3038   14.7188 F       1  UNL1       -0.1675
      7 F          62.7346   86.5887   16.5479 F       1  UNL1       -0.1675
      8 C          63.4656   84.4366   14.0985 C.3     1  UNL1        0.1307
      9 N          62.9728   84.4311   12.6817 N.am    1  UNL1       -0.2732
     10 C          62.7974   85.7251   11.9436 C.2     1  UNL1        0.2535
     11 O          63.1149   87.0246   12.6222 O.2     1  UNL1       -0.2697
     12 C          62.3046   85.7195   10.5269 C.ar    1  UNL1        0.1083
     13 C          63.0778   84.9929    9.4667 C.ar    1  UNL1        0.1467
     14 F          64.3439   84.2719    9.8232 F       1  UNL1       -0.2039
     15 C          62.5850   84.9874    8.0500 C.ar    1  UNL1        0.0299
     16 C          61.3189   85.7084    7.6934 C.ar    1  UNL1        0.0046
     17 C          60.5456   86.4350    8.7537 C.ar    1  UNL1        0.0299
     18 C          61.0384   86.4406   10.1704 C.ar    1  UNL1        0.1467
     19 F          60.2652   87.1672   11.2306 F       1  UNL1       -0.2039
     20 C          63.5412   81.9395   12.2136 C.3     1  UNL1        0.0233
     21 C          62.6553   83.1316   12.0031 C.3     1  UNL1        0.0939
     22 C          63.8084   87.0355   15.5572 C.3     1  UNL1        0.1269
     23 N          64.7441   88.0784   15.0217 N.am    1  UNL1       -0.2982
     24 C          64.2591   89.4813   14.8058 C.2     1  UNL1        0.2502
     25 O          62.8385   89.8414   15.1254 O.2     1  UNL1       -0.2700
     26 H          65.6765   87.8421   14.8120 H       1  UNL1        0.1498
     27 C          65.1948   90.5242   14.2703 C.ar    1  UNL1        0.1053
     28 C          66.4336   91.0294   14.9489 C.ar    1  UNL1        0.1278
     29 N          67.0604   92.0625   14.0602 N.ar    1  UNL1       -0.1622
     30 N          66.2092   92.1958   12.8324 N.ar    1  UNL1       -0.2163
     31 C          65.0562   91.2451   12.9622 C.ar    1  UNL1        0.1327
     32 N          63.9575   91.0496   11.9600 N.pl3   1  UNL1       -0.3424
     33 H          63.9532   91.5726   11.1259 H       1  UNL1        0.1437
     34 H          63.2406   90.3982   12.1362 H       1  UNL1        0.1437
     35 C          66.4658   93.1179   11.6774 C.ar    1  UNL1        0.0843
     36 C          66.0620   94.5598   11.7648 C.ar    1  UNL1        0.0215
     37 C          66.3186   95.4819   10.6098 C.ar    1  UNL1        0.0312
     38 C          66.9792   94.9619    9.3675 C.ar    1  UNL1        0.1402
     39 F          67.2358   95.8841    8.2125 F       1  UNL1       -0.2042
     40 C          67.3830   93.5200    9.2801 C.ar    1  UNL1        0.0312
     41 C          67.1264   92.5980   10.4351 C.ar    1  UNL1        0.0215
@<TRIPOS>BOND
     1    20    21    1
     2    21     9    1
     3     9     8    1
     4     8     1    1
     5     1     2    1
     6     1    22    1
     7    22    23    1
     8    23    24   am
     9    24    25    2
    10    24    27    1
    11    27    28   ar
    12    28    29   ar
    13    29    30   ar
    14    30    35    1
    15    35    36   ar
    16    36    37   ar
    17    37    38   ar
    18    38    39    1
    19    38    40   ar
    20    40    41   ar
    21    30    31   ar
    22    31    32    1
    23     1     4    1
    24     4     5    1
    25     4     6    1
    26     4     7    1
    27     9    10   am
    28    10    11    2
    29    10    12    1
    30    12    13   ar
    31    13    14    1
    32    13    15   ar
    33    15    16   ar
    34    16    17   ar
    35    17    18   ar
    36    18    19    1
    37    31    27   ar
    38    18    12   ar
    39    41    35   ar
    40     2     3    1
    41    23    26    1
    42    32    33    1
    43    32    34    1
@<TRIPOS>MOLECULE
*****
 41 43 0 0 0
SMALL
GASTEIGER

@<TRIPOS>ATOM
      1 C          61.4590   88.1395    9.4434 C.3     1  UNL1        0.2120
      2 O          62.7117   87.8197   10.2041 O.3     1  UNL1       -0.3763
      3 H          63.0714   88.6331   10.5913 H       1  UNL1        0.2107
      4 C          60.2064   88.4593    8.6827 C.3     1  UNL1        0.4226
      5 F          58.9538   88.7790    7.9220 F       1  UNL1       -0.1675
      6 F          59.9801   89.6558    9.5585 F       1  UNL1       -0.1675
      7 F          60.4328   87.2627    7.8069 F       1  UNL1       -0.1675
      8 C          61.3119   86.6924    9.0773 C.3     1  UNL1        0.1307
      9 N          62.1426   85.6547    9.7726 N.am    1  UNL1       -0.2732
     10 C          62.0111   85.4576   11.2537 C.2     1  UNL1        0.2535
     11 O          61.0490   86.2983   12.0397 O.2     1  UNL1       -0.2697
     12 C          62.8417   84.4200   11.9489 C.ar    1  UNL1        0.1083
     13 C          62.7381   82.9801   11.5416 C.ar    1  UNL1        0.1467
     14 F          61.8039   82.5778   10.4391 F       1  UNL1       -0.2039
     15 C          63.5687   81.9424   12.2368 C.ar    1  UNL1        0.0299
     16 C          64.5030   82.3445   13.3393 C.ar    1  UNL1        0.0046
     17 C          64.6066   83.7845   13.7466 C.ar    1  UNL1        0.0299
     18 C          63.7760   84.8222   13.0514 C.ar    1  UNL1        0.1467
     19 F          63.8796   86.2621   13.4587 F       1  UNL1       -0.2039
     20 C          62.9991   84.7528    7.4915 C.3     1  UNL1        0.0233
     21 C          63.1047   84.8140    8.9866 C.3     1  UNL1        0.0939
     22 C          61.6061   89.5867    9.8095 C.3     1  UNL1        0.1269
     23 N          62.5664   89.9937   10.8876 N.am    1  UNL1       -0.2982
     24 C          62.1515   89.9229   12.3273 C.2     1  UNL1        0.2502
     25 O          60.7764   89.4450   12.6890 O.2     1  UNL1       -0.2700
     26 H          63.4689   90.3073   10.6502 H       1  UNL1        0.1498
     27 C          63.1117   90.3299   13.4054 C.ar    1  UNL1        0.1053
     28 C          62.9582   90.0563   14.8723 C.ar    1  UNL1        0.1278
     29 N          64.1457   90.6393   15.5794 N.ar    1  UNL1       -0.1622
     30 N          65.0331   91.2733   14.5496 N.ar    1  UNL1       -0.2163
     31 C          64.3941   91.0821   13.2060 C.ar    1  UNL1        0.1327
     32 N          64.9414   91.5593   11.8935 N.pl3   1  UNL1       -0.3424
     33 H          65.7959   92.0473   11.8646 H       1  UNL1        0.1437
     34 H          64.4460   91.3845   11.0608 H       1  UNL1        0.1437
     35 C          66.3316   91.9753   14.8165 C.ar    1  UNL1        0.0843
     36 C          66.4805   92.8401   16.0329 C.ar    1  UNL1        0.0215
     37 C          67.7789   93.5420   16.2998 C.ar    1  UNL1        0.0312
     38 C          68.9285   93.3792   15.3501 C.ar    1  UNL1        0.1402
     39 F          70.2271   94.0811   15.6170 F       1  UNL1       -0.2042
     40 C          68.7797   92.5143   14.1336 C.ar    1  UNL1        0.0312
     41 C          67.4812   91.8124   13.8668 C.ar    1  UNL1        0.0215
@<TRIPOS>BOND
     1    20    21    1
     2    21     9    1
     3     9     8    1
     4     8     1    1
     5     1     2    1
     6     1    22    1
     7    22    23    1
     8    23    24   am
     9    24    25    2
    10    24    27    1
    11    27    28   ar
    12    28    29   ar
    13    29    30   ar
    14    30    35    1
    15    35    36   ar
    16    36    37   ar
    17    37    38   ar
    18    38    39    1
    19    38    40   ar
    20    40    41   ar
    21    30    31   ar
    22    31    32    1
    23     1     4    1
    24     4     5    1
    25     4     6    1
    26     4     7    1
    27     9    10   am
    28    10    11    2
    29    10    12    1
    30    12    13   ar
    31    13    14    1
    32    13    15   ar
    33    15    16   ar
    34    16    17   ar
    35    17    18   ar
    36    18    19    1
    37    31    27   ar
    38    18    12   ar
    39    41    35   ar
    40     2     3    1
    41    23    26    1
    42    32    33    1
    43    32    34    1
@<TRIPOS>MOLECULE
*****
 41 43 0 0 0
SMALL
GASTEIGER

@<TRIPOS>ATOM
      1 C          63.4233   86.2648   15.8897 C.3     1  UNL1        0.2120
      2 O          62.1038   86.6126   16.5127 O.3     1  UNL1       -0.3763
      3 H          62.0509   87.5723   16.6433 H       1  UNL1        0.2107
      4 C          64.7427   85.9170   15.2667 C.3     1  UNL1        0.4226
      5 F          66.0621   85.5692   14.6438 F       1  UNL1       -0.1675
      6 F          65.1411   85.1898   16.5168 F       1  UNL1       -0.1675
      7 F          64.3443   86.6441   14.0167 F       1  UNL1       -0.1675
      8 C          63.0436   84.8137   15.8956 C.3     1  UNL1        0.1307
      9 N          62.8800   84.0760   14.5997 N.am    1  UNL1       -0.2732
     10 C          63.7049   82.8542   14.3230 C.2     1  UNL1        0.2535
     11 O          64.6934   82.3700   15.3420 O.2     1  UNL1       -0.2697
     12 C          63.5413   82.1165   13.0272 C.ar    1  UNL1        0.1083
     13 C          64.2203   82.6186   11.7875 C.ar    1  UNL1        0.1467
     14 F          65.0629   83.8584   11.8436 F       1  UNL1       -0.2039
     15 C          64.0567   81.8810   10.4917 C.ar    1  UNL1        0.0299
     16 C          63.2141   80.6412   10.4355 C.ar    1  UNL1        0.0046
     17 C          62.5351   80.1392   11.6753 C.ar    1  UNL1        0.0299
     18 C          62.6987   80.8768   12.9711 C.ar    1  UNL1        0.1467
     19 F          62.0197   80.3747   14.2108 F       1  UNL1       -0.2039
     20 C          62.3630   85.3440   12.3917 C.3     1  UNL1        0.0233
     21 C          61.8915   84.5602   13.5807 C.3     1  UNL1        0.0939
     22 C          63.8030   87.7159   15.8838 C.3     1  UNL1        0.1269
     23 N          63.9906   88.4368   14.5818 N.am    1  UNL1       -0.2982
     24 C          63.8114   89.9246   14.5157 C.2     1  UNL1        0.2502
     25 O          63.4447   90.6915   15.7515 O.2     1  UNL1       -0.2700
     26 H          64.2313   87.9334   13.7707 H       1  UNL1        0.1498
     27 C          63.9990   90.6455   13.2137 C.ar    1  UNL1        0.1053
     28 C          63.1393   90.4995   11.9932 C.ar    1  UNL1        0.1278
     29 N          63.6882   91.4027   10.9288 N.ar    1  UNL1       -0.1622
     30 N          64.8872   92.1069   11.4915 N.ar    1  UNL1       -0.2163
     31 C          65.0793   91.6389   12.9036 C.ar    1  UNL1        0.1327
     32 N          66.1616   92.0859   13.8411 N.pl3   1  UNL1       -0.3424
     33 H          66.8287   92.7459   13.5438 H       1  UNL1        0.1437
     34 H          66.2047   91.7192   14.7537 H       1  UNL1        0.1437
     35 C          65.7437   93.1041   10.7689 C.ar    1  UNL1        0.0843
     36 C          65.3398   94.5480   10.7257 C.ar    1  UNL1        0.0215
     37 C          66.1964   95.5450   10.0032 C.ar    1  UNL1        0.0312
     38 C          67.4568   95.0982    9.3238 C.ar    1  UNL1        0.1402
     39 F          68.3134   96.0954    8.6012 F       1  UNL1       -0.2042
     40 C          67.8607   93.6543    9.3669 C.ar    1  UNL1        0.0312
     41 C          67.0042   92.6572   10.0895 C.ar    1  UNL1        0.0215
@<TRIPOS>BOND
     1    20    21    1
     2    21     9    1
     3     9     8    1
     4     8     1    1
     5     1     2    1
     6     1    22    1
     7    22    23    1
     8    23    24   am
     9    24    25    2
    10    24    27    1
    11    27    28   ar
    12    28    29   ar
    13    29    30   ar
    14    30    35    1
    15    35    36   ar
    16    36    37   ar
    17    37    38   ar
    18    38    39    1
    19    38    40   ar
    20    40    41   ar
    21    30    31   ar
    22    31    32    1
    23     1     4    1
    24     4     5    1
    25     4     6    1
    26     4     7    1
    27     9    10   am
    28    10    11    2
    29    10    12    1
    30    12    13   ar
    31    13    14    1
    32    13    15   ar
    33    15    16   ar
    34    16    17   ar
    35    17    18   ar
    36    18    19    1
    37    31    27   ar
    38    18    12   ar
    39    41    35   ar
    40     2     3    1
    41    23    26    1
    42    32    33    1
    43    32    34    1
