@<TRIPOS>MOLECULE
*****
 25 27 0 0 0
SMALL
GASTEIGER

@<TRIPOS>ATOM
      1 C          62.6456   90.9006   10.2797 C.3     1  UNL1        0.0522
      2 C          63.1456   90.3491   11.5820 C.ar    1  UNL1        0.0625
      3 C          63.6735   91.2767   12.6360 C.ar    1  UNL1        0.0522
      4 C          64.1735   90.7252   13.9382 C.ar    1  UNL1        0.1483
      5 C          64.1456   89.2462   14.1865 C.ar    1  UNL1        0.0612
      6 C          63.6177   88.3186   13.1325 C.ar    1  UNL1        0.1374
      7 N          63.1177   88.8701   11.8303 N.ar    1  UNL1       -0.2449
      8 C          63.5898   86.8395   13.3808 C.2     1  UNL1        0.2684
      9 O          64.4936   86.2353   14.4142 O.2     1  UNL1       -0.2681
     10 N          62.6580   85.9647   12.5956 N.am    1  UNL1       -0.2646
     11 H          62.0648   86.3613   11.9173 H       1  UNL1        0.1566
     12 C          62.6301   84.4856   12.8438 C.ar    1  UNL1        0.1345
     13 C          62.8746   83.5307   11.7133 C.ar    1  UNL1        0.0354
     14 C          62.8466   82.0516   11.9616 C.ar    1  UNL1        0.0158
     15 C          62.5742   81.5276   13.3404 C.ar    1  UNL1        0.0769
     16 CL         62.5462   80.0485   13.5886 Cl      1  UNL1       -0.0806
     17 C          62.3297   82.4826   14.4709 C.ar    1  UNL1        0.1116
     18 N          62.3576   83.9616   14.2227 N.ar    1  UNL1       -0.2281
     19 O          64.7015   91.6528   14.9923 O.3     1  UNL1       -0.4502
     20 C          66.1470   92.0533   14.9831 C.ar    1  UNL1        0.1835
     21 C          66.9854   91.8084   13.7635 C.ar    1  UNL1        0.1396
     22 N          68.4309   92.2089   13.7544 N.ar    1  UNL1       -0.2192
     23 C          69.0380   92.8543   14.9648 C.ar    1  UNL1        0.1991
     24 N          68.1997   93.0991   16.1843 N.ar    1  UNL1       -0.2192
     25 C          66.7541   92.6986   16.1934 C.ar    1  UNL1        0.1396
@<TRIPOS>BOND
     1     1     2    1
     2     2     3   ar
     3     3     4   ar
     4     4    19    1
     5    19    20    1
     6    20    21   ar
     7    21    22   ar
     8    22    23   ar
     9    23    24   ar
    10    24    25   ar
    11     4     5   ar
    12     5     6   ar
    13     6     8    1
    14     8     9    2
    15     8    10   am
    16    10    12    1
    17    12    13   ar
    18    13    14   ar
    19    14    15   ar
    20    15    16    1
    21    15    17   ar
    22    17    18   ar
    23     6     7   ar
    24     7     2   ar
    25    25    20   ar
    26    18    12   ar
    27    10    11    1
@<TRIPOS>MOLECULE
*****
 25 27 0 0 0
SMALL
GASTEIGER

@<TRIPOS>ATOM
      1 C          65.0377   92.1945   16.5116 C.3     1  UNL1        0.0522
      2 C          65.0557   92.0665   15.0172 C.ar    1  UNL1        0.0625
      3 C          66.1105   92.7712   14.2168 C.ar    1  UNL1        0.0522
      4 C          66.1285   92.6432   12.7223 C.ar    1  UNL1        0.1483
      5 C          65.0916   91.8106   12.0284 C.ar    1  UNL1        0.0612
      6 C          64.0368   91.1059   12.8288 C.ar    1  UNL1        0.1374
      7 N          64.0188   91.2339   14.3232 N.ar    1  UNL1       -0.2449
      8 C          62.9999   90.2732   12.1348 C.2     1  UNL1        0.2684
      9 O          61.8507   89.7045   12.9133 O.2     1  UNL1       -0.2681
     10 N          63.1122   90.0093   10.6626 N.am    1  UNL1       -0.2646
     11 H          63.8665   90.3826   10.1517 H       1  UNL1        0.1566
     12 C          62.0753   89.1766    9.9686 C.ar    1  UNL1        0.1345
     13 C          62.2217   87.6846    9.9189 C.ar    1  UNL1        0.0354
     14 C          61.1849   86.8520    9.2249 C.ar    1  UNL1        0.0158
     15 C          60.0015   87.5114    8.5807 C.ar    1  UNL1        0.0769
     16 CL         58.9646   86.6787    7.8868 Cl      1  UNL1       -0.0806
     17 C          59.8551   89.0033    8.6304 C.ar    1  UNL1        0.1116
     18 N          60.8920   89.8359    9.3244 N.ar    1  UNL1       -0.2281
     19 O          67.1833   93.3479   11.9219 O.3     1  UNL1       -0.4502
     20 C          66.7893   94.3684   10.8956 C.ar    1  UNL1        0.1835
     21 C          67.1959   94.1872    9.4631 C.ar    1  UNL1        0.1396
     22 N          66.8019   95.2078    8.4368 N.ar    1  UNL1       -0.2192
     23 C          66.0012   96.4095    8.8430 C.ar    1  UNL1        0.1991
     24 N          65.5946   96.5906   10.2754 N.ar    1  UNL1       -0.2192
     25 C          65.9887   95.5701   11.3017 C.ar    1  UNL1        0.1396
@<TRIPOS>BOND
     1     1     2    1
     2     2     3   ar
     3     3     4   ar
     4     4    19    1
     5    19    20    1
     6    20    21   ar
     7    21    22   ar
     8    22    23   ar
     9    23    24   ar
    10    24    25   ar
    11     4     5   ar
    12     5     6   ar
    13     6     8    1
    14     8     9    2
    15     8    10   am
    16    10    12    1
    17    12    13   ar
    18    13    14   ar
    19    14    15   ar
    20    15    16    1
    21    15    17   ar
    22    17    18   ar
    23     6     7   ar
    24     7     2   ar
    25    25    20   ar
    26    18    12   ar
    27    10    11    1
@<TRIPOS>MOLECULE
*****
 25 27 0 0 0
SMALL
GASTEIGER

@<TRIPOS>ATOM
      1 C          59.0025   90.2542   11.5859 C.3     1  UNL1        0.0522
      2 C          60.2833   89.4760   11.6486 C.ar    1  UNL1        0.0625
      3 C          60.4040   88.1703   10.9203 C.ar    1  UNL1        0.0522
      4 C          61.6849   87.3921   10.9830 C.ar    1  UNL1        0.1483
      5 C          62.8450   87.9197   11.7740 C.ar    1  UNL1        0.0612
      6 C          62.7243   89.2254   12.5023 C.ar    1  UNL1        0.1374
      7 N          61.4435   90.0036   12.4396 N.ar    1  UNL1       -0.2449
      8 C          63.8845   89.7530   13.2934 C.2     1  UNL1        0.2684
      9 O          64.5655   88.8759   14.3018 O.2     1  UNL1       -0.2681
     10 N          64.3636   91.1577   13.0760 N.am    1  UNL1       -0.2646
     11 H          63.9166   91.7334   12.4142 H       1  UNL1        0.1566
     12 C          65.5238   91.6853   13.8671 C.ar    1  UNL1        0.1345
     13 C          66.8922   91.7274   13.2543 C.ar    1  UNL1        0.0354
     14 C          68.0522   92.2550   14.0453 C.ar    1  UNL1        0.0158
     15 C          67.8439   92.7405   15.4492 C.ar    1  UNL1        0.0769
     16 CL         69.0041   93.2681   16.2403 Cl      1  UNL1       -0.0806
     17 C          66.4755   92.6983   16.0621 C.ar    1  UNL1        0.1116
     18 N          65.3154   92.1707   15.2710 N.ar    1  UNL1       -0.2281
     19 O          61.8055   86.0863   10.2547 O.3     1  UNL1       -0.4502
     20 C          62.6440   84.9825   10.8279 C.ar    1  UNL1        0.1835
     21 C          63.5966   84.2296    9.9471 C.ar    1  UNL1        0.1396
     22 N          64.4351   83.1258   10.5203 N.ar    1  UNL1       -0.2192
     23 C          64.3209   82.7749   11.9743 C.ar    1  UNL1        0.1991
     24 N          63.3683   83.5278   12.8549 N.ar    1  UNL1       -0.2192
     25 C          62.5298   84.6316   12.2817 C.ar    1  UNL1        0.1396
@<TRIPOS>BOND
     1     1     2    1
     2     2     3   ar
     3     3     4   ar
     4     4    19    1
     5    19    20    1
     6    20    21   ar
     7    21    22   ar
     8    22    23   ar
     9    23    24   ar
    10    24    25   ar
    11     4     5   ar
    12     5     6   ar
    13     6     8    1
    14     8     9    2
    15     8    10   am
    16    10    12    1
    17    12    13   ar
    18    13    14   ar
    19    14    15   ar
    20    15    16    1
    21    15    17   ar
    22    17    18   ar
    23     6     7   ar
    24     7     2   ar
    25    25    20   ar
    26    18    12   ar
    27    10    11    1
@<TRIPOS>MOLECULE
*****
 25 27 0 0 0
SMALL
GASTEIGER

@<TRIPOS>ATOM
      1 C          58.8907   90.9425   11.6179 C.3     1  UNL1        0.0522
      2 C          60.1938   90.2614   11.3213 C.ar    1  UNL1        0.0625
      3 C          61.3814   91.0696   10.8896 C.ar    1  UNL1        0.0522
      4 C          62.6845   90.3885   10.5930 C.ar    1  UNL1        0.1483
      5 C          62.8001   88.8991   10.7281 C.ar    1  UNL1        0.0612
      6 C          61.6125   88.0909   11.1598 C.ar    1  UNL1        0.1374
      7 N          60.3094   88.7720   11.4564 N.ar    1  UNL1       -0.2449
      8 C          61.7281   86.6014   11.2949 C.2     1  UNL1        0.2684
      9 O          61.0648   85.7037   10.2927 O.2     1  UNL1       -0.2681
     10 N          62.5068   86.0096   12.4321 N.am    1  UNL1       -0.2646
     11 H          62.9422   86.5988   13.0898 H       1  UNL1        0.1566
     12 C          62.6224   84.5201   12.5672 C.ar    1  UNL1        0.1345
     13 C          63.0623   83.6927   11.3960 C.ar    1  UNL1        0.0354
     14 C          63.1778   82.2033   11.5311 C.ar    1  UNL1        0.0158
     15 C          62.8534   81.5413   12.8375 C.ar    1  UNL1        0.0769
     16 CL         62.9689   80.0519   12.9726 Cl      1  UNL1       -0.0806
     17 C          62.4135   82.3688   14.0087 C.ar    1  UNL1        0.1116
     18 N          62.2980   83.8582   13.8736 N.ar    1  UNL1       -0.2281
     19 O          63.8721   91.1969   10.1613 O.3     1  UNL1       -0.4502
     20 C          64.6845   91.9393   11.1805 C.ar    1  UNL1        0.1835
     21 C          65.6592   92.9914   10.7409 C.ar    1  UNL1        0.1396
     22 N          66.4716   93.7339   11.7601 N.ar    1  UNL1       -0.2192
     23 C          66.3093   93.4243   13.2189 C.ar    1  UNL1        0.1991
     24 N          65.3347   92.3722   13.6583 N.ar    1  UNL1       -0.2192
     25 C          64.5223   91.6297   12.6392 C.ar    1  UNL1        0.1396
@<TRIPOS>BOND
     1     1     2    1
     2     2     3   ar
     3     3     4   ar
     4     4    19    1
     5    19    20    1
     6    20    21   ar
     7    21    22   ar
     8    22    23   ar
     9    23    24   ar
    10    24    25   ar
    11     4     5   ar
    12     5     6   ar
    13     6     8    1
    14     8     9    2
    15     8    10   am
    16    10    12    1
    17    12    13   ar
    18    13    14   ar
    19    14    15   ar
    20    15    16    1
    21    15    17   ar
    22    17    18   ar
    23     6     7   ar
    24     7     2   ar
    25    25    20   ar
    26    18    12   ar
    27    10    11    1
@<TRIPOS>MOLECULE
*****
 25 27 0 0 0
SMALL
GASTEIGER

@<TRIPOS>ATOM
      1 C          59.1893   88.4322    7.4798 C.3     1  UNL1        0.0522
      2 C          60.2735   87.9870    8.4159 C.ar    1  UNL1        0.0625
      3 C          60.8760   86.6211    8.2703 C.ar    1  UNL1        0.0522
      4 C          61.9602   86.1759    9.2063 C.ar    1  UNL1        0.1483
      5 C          62.4420   87.0967   10.2880 C.ar    1  UNL1        0.0612
      6 C          61.8396   88.4626   10.4336 C.ar    1  UNL1        0.1374
      7 N          60.7553   88.9078    9.4975 N.ar    1  UNL1       -0.2449
      8 C          62.3214   89.3835   11.5153 C.2     1  UNL1        0.2684
      9 O          61.9555   90.8377   11.4802 O.2     1  UNL1       -0.2681
     10 N          63.1690   88.8500   12.6319 N.am    1  UNL1       -0.2646
     11 H          63.4091   87.8955   12.6549 H       1  UNL1        0.1566
     12 C          63.6508   89.7709   13.7136 C.ar    1  UNL1        0.1345
     13 C          64.7957   90.7033   13.4499 C.ar    1  UNL1        0.0354
     14 C          65.2774   91.6241   14.5316 C.ar    1  UNL1        0.0158
     15 C          64.6142   91.6124   15.8769 C.ar    1  UNL1        0.0769
     16 CL         65.0960   92.5333   16.9586 Cl      1  UNL1       -0.0806
     17 C          63.4693   90.6800   16.1406 C.ar    1  UNL1        0.1116
     18 N          62.9876   89.7592   15.0590 N.ar    1  UNL1       -0.2281
     19 O          62.5627   84.8099    9.0607 O.3     1  UNL1       -0.4502
     20 C          63.1064   84.0979   10.2638 C.ar    1  UNL1        0.1835
     21 C          64.2615   83.1521   10.1171 C.ar    1  UNL1        0.1396
     22 N          64.8052   82.4401   11.3202 N.ar    1  UNL1       -0.2192
     23 C          64.1938   82.6738   12.6699 C.ar    1  UNL1        0.1991
     24 N          63.0388   83.6195   12.8165 N.ar    1  UNL1       -0.2192
     25 C          62.4951   84.3316   11.6134 C.ar    1  UNL1        0.1396
@<TRIPOS>BOND
     1     1     2    1
     2     2     3   ar
     3     3     4   ar
     4     4    19    1
     5    19    20    1
     6    20    21   ar
     7    21    22   ar
     8    22    23   ar
     9    23    24   ar
    10    24    25   ar
    11     4     5   ar
    12     5     6   ar
    13     6     8    1
    14     8     9    2
    15     8    10   am
    16    10    12    1
    17    12    13   ar
    18    13    14   ar
    19    14    15   ar
    20    15    16    1
    21    15    17   ar
    22    17    18   ar
    23     6     7   ar
    24     7     2   ar
    25    25    20   ar
    26    18    12   ar
    27    10    11    1
@<TRIPOS>MOLECULE
*****
 25 27 0 0 0
SMALL
GASTEIGER

@<TRIPOS>ATOM
      1 C          59.6875   90.6727   10.8829 C.3     1  UNL1        0.0522
      2 C          60.8946   89.9022   11.3293 C.ar    1  UNL1        0.0625
      3 C          62.1237   90.6315   11.7847 C.ar    1  UNL1        0.0522
      4 C          63.3307   89.8610   12.2312 C.ar    1  UNL1        0.1483
      5 C          63.3087   88.3612   12.2222 C.ar    1  UNL1        0.0612
      6 C          62.0796   87.6319   11.7668 C.ar    1  UNL1        0.1374
      7 N          60.8726   88.4024   11.3204 N.ar    1  UNL1       -0.2449
      8 C          62.0576   86.1320   11.7578 C.2     1  UNL1        0.2684
      9 O          61.4004   85.3984   10.6265 O.2     1  UNL1       -0.2681
     10 N          62.6927   85.3659   12.8801 N.am    1  UNL1       -0.2646
     11 H          63.1240   85.8474   13.6227 H       1  UNL1        0.1566
     12 C          62.6706   83.8660   12.8712 C.ar    1  UNL1        0.1345
     13 C          63.0449   83.1179   11.6261 C.ar    1  UNL1        0.0354
     14 C          63.0228   81.6181   11.6172 C.ar    1  UNL1        0.0158
     15 C          62.6265   80.8665   12.8533 C.ar    1  UNL1        0.0769
     16 CL         62.6044   79.3666   12.8444 Cl      1  UNL1       -0.0806
     17 C          62.2522   81.6146   14.0984 C.ar    1  UNL1        0.1116
     18 N          62.2743   83.1144   14.1073 N.ar    1  UNL1       -0.2281
     19 O          64.5599   90.5903   12.6866 O.3     1  UNL1       -0.4502
     20 C          64.6231   91.1610   14.0723 C.ar    1  UNL1        0.1835
     21 C          63.5700   90.8040   15.0792 C.ar    1  UNL1        0.1396
     22 N          63.6332   91.3747   16.4650 N.ar    1  UNL1       -0.2192
     23 C          64.7495   92.3023   16.8439 C.ar    1  UNL1        0.1991
     24 N          65.8024   92.6593   15.8370 N.ar    1  UNL1       -0.2192
     25 C          65.7392   92.0886   14.4513 C.ar    1  UNL1        0.1396
@<TRIPOS>BOND
     1     1     2    1
     2     2     3   ar
     3     3     4   ar
     4     4    19    1
     5    19    20    1
     6    20    21   ar
     7    21    22   ar
     8    22    23   ar
     9    23    24   ar
    10    24    25   ar
    11     4     5   ar
    12     5     6   ar
    13     6     8    1
    14     8     9    2
    15     8    10   am
    16    10    12    1
    17    12    13   ar
    18    13    14   ar
    19    14    15   ar
    20    15    16    1
    21    15    17   ar
    22    17    18   ar
    23     6     7   ar
    24     7     2   ar
    25    25    20   ar
    26    18    12   ar
    27    10    11    1
@<TRIPOS>MOLECULE
*****
 25 27 0 0 0
SMALL
GASTEIGER

@<TRIPOS>ATOM
      1 C          60.7103   89.8460    8.9446 C.3     1  UNL1        0.0522
      2 C          61.5822   89.6505   10.1494 C.ar    1  UNL1        0.0625
      3 C          62.2089   90.8358   10.8219 C.ar    1  UNL1        0.0522
      4 C          63.0808   90.6403   12.0267 C.ar    1  UNL1        0.1483
      5 C          63.3260   89.2596   12.5591 C.ar    1  UNL1        0.0612
      6 C          62.6992   88.0744   11.8866 C.ar    1  UNL1        0.1374
      7 N          61.8273   88.2698   10.6818 N.ar    1  UNL1       -0.2449
      8 C          62.9443   86.6935   12.4189 C.2     1  UNL1        0.2684
      9 O          63.7636   86.5031   13.6609 O.2     1  UNL1       -0.2681
     10 N          62.3702   85.5033   11.7093 N.am    1  UNL1       -0.2646
     11 H          61.8325   85.6283   10.8942 H       1  UNL1        0.1566
     12 C          62.6153   84.1224   12.2417 C.ar    1  UNL1        0.1345
     13 C          63.0013   83.0155   11.3060 C.ar    1  UNL1        0.0354
     14 C          63.2464   81.6347   11.8384 C.ar    1  UNL1        0.0158
     15 C          63.1055   81.3610   13.3064 C.ar    1  UNL1        0.0769
     16 CL         63.3506   79.9802   13.8388 Cl      1  UNL1       -0.0806
     17 C          62.7195   82.4680   14.2421 C.ar    1  UNL1        0.1116
     18 N          62.4744   83.8487   13.7098 N.ar    1  UNL1       -0.2281
     19 O          63.7076   91.8257   12.6992 O.3     1  UNL1       -0.4502
     20 C          65.1862   91.8506   12.9502 C.ar    1  UNL1        0.1835
     21 C          65.7406   91.2820   14.2228 C.ar    1  UNL1        0.1396
     22 N          67.2193   91.3069   14.4738 N.ar    1  UNL1       -0.2192
     23 C          68.1435   91.9003   13.4521 C.ar    1  UNL1        0.1991
     24 N          67.5891   92.4688   12.1796 N.ar    1  UNL1       -0.2192
     25 C          66.1105   92.4439   11.9286 C.ar    1  UNL1        0.1396
@<TRIPOS>BOND
     1     1     2    1
     2     2     3   ar
     3     3     4   ar
     4     4    19    1
     5    19    20    1
     6    20    21   ar
     7    21    22   ar
     8    22    23   ar
     9    23    24   ar
    10    24    25   ar
    11     4     5   ar
    12     5     6   ar
    13     6     8    1
    14     8     9    2
    15     8    10   am
    16    10    12    1
    17    12    13   ar
    18    13    14   ar
    19    14    15   ar
    20    15    16    1
    21    15    17   ar
    22    17    18   ar
    23     6     7   ar
    24     7     2   ar
    25    25    20   ar
    26    18    12   ar
    27    10    11    1
@<TRIPOS>MOLECULE
*****
 25 27 0 0 0
SMALL
GASTEIGER

@<TRIPOS>ATOM
      1 C          59.4381   88.9582    7.5829 C.3     1  UNL1        0.0522
      2 C          60.4170   88.8384    8.7131 C.ar    1  UNL1        0.0625
      3 C          60.9443   90.0727    9.3826 C.ar    1  UNL1        0.0522
      4 C          61.9232   89.9529   10.5128 C.ar    1  UNL1        0.1483
      5 C          62.3748   88.5988   10.9735 C.ar    1  UNL1        0.0612
      6 C          61.8474   87.3644   10.3041 C.ar    1  UNL1        0.1374
      7 N          60.8685   87.4842    9.1739 N.ar    1  UNL1       -0.2449
      8 C          62.2990   86.0102   10.7648 C.2     1  UNL1        0.2684
      9 O          62.9084   85.0499    9.7868 O.2     1  UNL1       -0.2681
     10 N          62.1412   85.6163   12.2035 N.am    1  UNL1       -0.2646
     11 H          61.7412   86.2466   12.8454 H       1  UNL1        0.1566
     12 C          62.5927   84.2621   12.6642 C.ar    1  UNL1        0.1345
     13 C          63.1669   84.0906   14.0393 C.ar    1  UNL1        0.0354
     14 C          63.6184   82.7364   14.5000 C.ar    1  UNL1        0.0158
     15 C          63.4958   81.5537   13.5856 C.ar    1  UNL1        0.0769
     16 CL         63.9473   80.1994   14.0463 Cl      1  UNL1       -0.0806
     17 C          62.9216   81.7252   12.2105 C.ar    1  UNL1        0.1116
     18 N          62.4701   83.0793   11.7498 N.ar    1  UNL1       -0.2281
     19 O          62.4505   91.1874   11.1823 O.3     1  UNL1       -0.4502
     20 C          63.4563   91.0690   12.2889 C.ar    1  UNL1        0.1835
     21 C          64.7450   91.8333   12.2161 C.ar    1  UNL1        0.1396
     22 N          65.7507   91.7148   13.3226 N.ar    1  UNL1       -0.2192
     23 C          65.4677   90.8321   14.5020 C.ar    1  UNL1        0.1991
     24 N          64.1791   90.0679   14.5747 N.ar    1  UNL1       -0.2192
     25 C          63.1733   90.1863   13.4682 C.ar    1  UNL1        0.1396
@<TRIPOS>BOND
     1     1     2    1
     2     2     3   ar
     3     3     4   ar
     4     4    19    1
     5    19    20    1
     6    20    21   ar
     7    21    22   ar
     8    22    23   ar
     9    23    24   ar
    10    24    25   ar
    11     4     5   ar
    12     5     6   ar
    13     6     8    1
    14     8     9    2
    15     8    10   am
    16    10    12    1
    17    12    13   ar
    18    13    14   ar
    19    14    15   ar
    20    15    16    1
    21    15    17   ar
    22    17    18   ar
    23     6     7   ar
    24     7     2   ar
    25    25    20   ar
    26    18    12   ar
    27    10    11    1
@<TRIPOS>MOLECULE
*****
 25 27 0 0 0
SMALL
GASTEIGER

@<TRIPOS>ATOM
      1 C          62.4425   85.1524    8.2940 C.3     1  UNL1        0.0522
      2 C          61.7803   86.4625    8.6025 C.ar    1  UNL1        0.0625
      3 C          60.6076   86.9205    7.7871 C.ar    1  UNL1        0.0522
      4 C          59.9453   88.2306    8.0957 C.ar    1  UNL1        0.1483
      5 C          60.4559   89.0826    9.2197 C.ar    1  UNL1        0.0612
      6 C          61.6286   88.6246   10.0350 C.ar    1  UNL1        0.1374
      7 N          62.2908   87.3145    9.7265 N.ar    1  UNL1       -0.2449
      8 C          62.1392   89.4767   11.1591 C.2     1  UNL1        0.2684
      9 O          61.8412   90.9466   11.1810 O.2     1  UNL1       -0.2681
     10 N          62.9477   88.8588   12.2611 N.am    1  UNL1       -0.2646
     11 H          63.1433   87.8940   12.2467 H       1  UNL1        0.1566
     12 C          63.4583   89.7109   13.3851 C.ar    1  UNL1        0.1345
     13 C          64.6300   90.6208   13.1640 C.ar    1  UNL1        0.0354
     14 C          65.1405   91.4728   14.2880 C.ar    1  UNL1        0.0158
     15 C          64.4793   91.4149   15.6331 C.ar    1  UNL1        0.0769
     16 CL         64.9899   92.2670   16.7571 Cl      1  UNL1       -0.0806
     17 C          63.3075   90.5050   15.8542 C.ar    1  UNL1        0.1116
     18 N          62.7970   89.6530   14.7303 N.ar    1  UNL1       -0.2281
     19 O          58.7726   88.6885    7.2802 O.3     1  UNL1       -0.4502
     20 C          58.9338   89.8125    6.3001 C.ar    1  UNL1        0.1835
     21 C          60.2977   90.1736    5.7907 C.ar    1  UNL1        0.1396
     22 N          60.4589   91.2976    4.8106 N.ar    1  UNL1       -0.2192
     23 C          59.2562   92.0604    4.3397 C.ar    1  UNL1        0.1991
     24 N          57.8923   91.6992    4.8490 N.ar    1  UNL1       -0.2192
     25 C          57.7311   90.5753    5.8292 C.ar    1  UNL1        0.1396
@<TRIPOS>BOND
     1     1     2    1
     2     2     3   ar
     3     3     4   ar
     4     4    19    1
     5    19    20    1
     6    20    21   ar
     7    21    22   ar
     8    22    23   ar
     9    23    24   ar
    10    24    25   ar
    11     4     5   ar
    12     5     6   ar
    13     6     8    1
    14     8     9    2
    15     8    10   am
    16    10    12    1
    17    12    13   ar
    18    13    14   ar
    19    14    15   ar
    20    15    16    1
    21    15    17   ar
    22    17    18   ar
    23     6     7   ar
    24     7     2   ar
    25    25    20   ar
    26    18    12   ar
    27    10    11    1
