@<TRIPOS>MOLECULE
*****
 24 27 0 0 0
SMALL
GASTEIGER

@<TRIPOS>ATOM
      1 O          67.0602   93.0055   15.2867 O.3     1  UNL1       -0.3596
      2 C          66.1164   92.2849   14.3703 C.3     1  UNL1        0.2582
      3 N          65.5186   91.0213   14.9145 N.2     1  UNL1       -0.2380
      4 C          64.5519   90.0838   14.2537 C.2     1  UNL1        0.0825
      5 C          63.9442   90.1784   12.8856 C.ar    1  UNL1        0.0344
      6 C          63.0223   89.0266   12.6146 C.ar    1  UNL1        0.0143
      7 C          62.3094   88.9302   11.2983 C.ar    1  UNL1        0.0578
      8 CL         61.3875   87.7784   11.0273 Cl      1  UNL1       -0.0822
      9 C          62.5184   89.9855   10.2531 C.ar    1  UNL1        0.0129
     10 C          63.4403   91.1373   10.5241 C.ar    1  UNL1        0.0185
     11 C          64.1532   91.2337   11.8403 C.ar    1  UNL1        0.0668
     12 N          65.0215   92.4552   11.9050 N.ar    1  UNL1       -0.2874
     13 C          65.1450   93.4417   10.7819 C.ar    1  UNL1        0.1827
     14 N          66.0951   94.5192   11.2137 N.ar    1  UNL1       -0.2223
     15 C          66.5587   94.1986   12.6038 C.ar    1  UNL1        0.1181
     16 C          65.8952   92.9230   13.0311 C.ar    1  UNL1        0.1125
     17 H          67.1363   92.5174   16.1215 H       1  UNL1        0.2128
     18 C          64.1381   88.8946   15.0688 C.ar    1  UNL1        0.0448
     19 C          64.4905   87.5109   14.6091 C.ar    1  UNL1        0.0037
     20 C          64.0766   86.3217   15.4243 C.ar    1  UNL1        0.0002
     21 C          63.3104   86.5160   16.6991 C.ar    1  UNL1        0.0023
     22 C          62.9580   87.8998   17.1587 C.ar    1  UNL1        0.0297
     23 C          63.3718   89.0890   16.3437 C.ar    1  UNL1        0.1415
     24 F          63.0194   90.4727   16.8033 F       1  UNL1       -0.2041
@<TRIPOS>BOND
     1     1     2    1
     2     2     3    1
     3     3     4    2
     4     4    18    1
     5    18    19   ar
     6    19    20   ar
     7    20    21   ar
     8    21    22   ar
     9    22    23   ar
    10    23    24    1
    11     4     5    1
    12     5     6   ar
    13     6     7   ar
    14     7     8    1
    15     7     9   ar
    16     9    10   ar
    17    10    11   ar
    18    11    12    1
    19    12    13   ar
    20    13    14   ar
    21    14    15   ar
    22    15    16   ar
    23    16     2    1
    24    23    18   ar
    25    11     5   ar
    26    16    12   ar
    27     1    17    1
@<TRIPOS>MOLECULE
*****
 24 27 0 0 0
SMALL
GASTEIGER

@<TRIPOS>ATOM
      1 O          62.8362   91.3123   10.7107 O.3     1  UNL1       -0.3596
      2 C          62.9097   89.8880   11.1752 C.3     1  UNL1        0.2582
      3 N          62.4379   88.8577   10.1923 N.2     1  UNL1       -0.2380
      4 C          62.3851   87.3672   10.3526 C.2     1  UNL1        0.0825
      5 C          62.7910   86.5389   11.5354 C.ar    1  UNL1        0.0344
      6 C          62.5752   85.0765   11.2803 C.ar    1  UNL1        0.0143
      7 C          62.9182   84.0718   12.3399 C.ar    1  UNL1        0.0578
      8 CL         62.7024   82.6095   12.0849 Cl      1  UNL1       -0.0822
      9 C          63.4772   84.5293   13.6546 C.ar    1  UNL1        0.0129
     10 C          63.6931   85.9916   13.9096 C.ar    1  UNL1        0.0185
     11 C          63.3500   86.9964   12.8500 C.ar    1  UNL1        0.0668
     12 N          63.6411   88.3953   13.3065 N.ar    1  UNL1       -0.2874
     13 C          64.2044   88.7233   14.6575 C.ar    1  UNL1        0.1827
     14 N          64.3566   90.2129   14.7470 N.ar    1  UNL1       -0.2223
     15 C          63.8873   90.8055   13.4514 C.ar    1  UNL1        0.1181
     16 C          63.4451   89.6822   12.5611 C.ar    1  UNL1        0.1125
     17 H          62.4796   91.3404    9.8090 H       1  UNL1        0.2128
     18 C          61.8565   86.6042    9.1743 C.ar    1  UNL1        0.0448
     19 C          62.7744   85.7263    8.3762 C.ar    1  UNL1        0.0037
     20 C          62.2457   84.9633    7.1979 C.ar    1  UNL1        0.0002
     21 C          60.7992   85.0781    6.8177 C.ar    1  UNL1        0.0023
     22 C          59.8814   85.9561    7.6158 C.ar    1  UNL1        0.0297
     23 C          60.4100   86.7190    8.7941 C.ar    1  UNL1        0.1415
     24 F          59.4922   87.5970    9.5922 F       1  UNL1       -0.2041
@<TRIPOS>BOND
     1     1     2    1
     2     2     3    1
     3     3     4    2
     4     4    18    1
     5    18    19   ar
     6    19    20   ar
     7    20    21   ar
     8    21    22   ar
     9    22    23   ar
    10    23    24    1
    11     4     5    1
    12     5     6   ar
    13     6     7   ar
    14     7     8    1
    15     7     9   ar
    16     9    10   ar
    17    10    11   ar
    18    11    12    1
    19    12    13   ar
    20    13    14   ar
    21    14    15   ar
    22    15    16   ar
    23    16     2    1
    24    23    18   ar
    25    11     5   ar
    26    16    12   ar
    27     1    17    1
@<TRIPOS>MOLECULE
*****
 24 27 0 0 0
SMALL
GASTEIGER

@<TRIPOS>ATOM
      1 O          64.9168   87.5847   15.3123 O.3     1  UNL1       -0.3596
      2 C          64.1315   87.5038   14.0369 C.3     1  UNL1        0.2582
      3 N          63.8762   86.1203   13.5164 N.2     1  UNL1       -0.2380
      4 C          63.1317   85.7084   12.2811 C.2     1  UNL1        0.0825
      5 C          62.4587   86.5782   11.2611 C.ar    1  UNL1        0.0344
      6 C          61.8260   85.7599   10.1748 C.ar    1  UNL1        0.0143
      7 C          61.0985   86.4381    9.0519 C.ar    1  UNL1        0.0578
      8 CL         60.4659   85.6198    7.9656 Cl      1  UNL1       -0.0822
      9 C          61.0037   87.9347    9.0153 C.ar    1  UNL1        0.0129
     10 C          61.6364   88.7530   10.1016 C.ar    1  UNL1        0.0185
     11 C          62.3639   88.0748   11.2245 C.ar    1  UNL1        0.0668
     12 N          62.9187   89.0712   12.1989 N.ar    1  UNL1       -0.2874
     13 C          62.7539   90.5544   12.0481 C.ar    1  UNL1        0.1827
     14 N          63.4388   91.2170   13.2066 N.ar    1  UNL1       -0.2223
     15 C          64.0268   90.1432   14.0733 C.ar    1  UNL1        0.1181
     16 C          63.7054   88.8170   13.4505 C.ar    1  UNL1        0.1125
     17 H          65.1438   86.6897   15.6095 H       1  UNL1        0.2128
     18 C          63.0493   84.2314   12.0329 C.ar    1  UNL1        0.0448
     19 C          63.6037   83.6518   10.7653 C.ar    1  UNL1        0.0037
     20 C          63.5213   82.1747   10.5172 C.ar    1  UNL1        0.0002
     21 C          62.8846   81.2773   11.5366 C.ar    1  UNL1        0.0023
     22 C          62.3302   81.8569   12.8042 C.ar    1  UNL1        0.0297
     23 C          62.4125   83.3339   13.0523 C.ar    1  UNL1        0.1415
     24 F          61.8581   83.9136   14.3199 F       1  UNL1       -0.2041
@<TRIPOS>BOND
     1     1     2    1
     2     2     3    1
     3     3     4    2
     4     4    18    1
     5    18    19   ar
     6    19    20   ar
     7    20    21   ar
     8    21    22   ar
     9    22    23   ar
    10    23    24    1
    11     4     5    1
    12     5     6   ar
    13     6     7   ar
    14     7     8    1
    15     7     9   ar
    16     9    10   ar
    17    10    11   ar
    18    11    12    1
    19    12    13   ar
    20    13    14   ar
    21    14    15   ar
    22    15    16   ar
    23    16     2    1
    24    23    18   ar
    25    11     5   ar
    26    16    12   ar
    27     1    17    1
@<TRIPOS>MOLECULE
*****
 24 27 0 0 0
SMALL
GASTEIGER

@<TRIPOS>ATOM
      1 O          59.7578   85.3594    7.4116 O.3     1  UNL1       -0.3596
      2 C          60.4651   86.1359    8.4824 C.3     1  UNL1        0.2582
      3 N          61.2583   85.3213    9.4609 N.2     1  UNL1       -0.2380
      4 C          62.0680   85.7939   10.6318 C.2     1  UNL1        0.0825
      5 C          62.2846   87.1978   11.1134 C.ar    1  UNL1        0.0344
      6 C          63.1670   87.2312   12.3260 C.ar    1  UNL1        0.0143
      7 C          63.5098   88.5427   12.9681 C.ar    1  UNL1        0.0578
      8 CL         64.3922   88.5762   14.1806 Cl      1  UNL1       -0.0822
      9 C          62.9702   89.8209   12.3978 C.ar    1  UNL1        0.0129
     10 C          62.0878   89.7875   11.1853 C.ar    1  UNL1        0.0185
     11 C          61.7450   88.4760   10.5431 C.ar    1  UNL1        0.0668
     12 N          60.8554   88.6658    9.3503 N.ar    1  UNL1       -0.2874
     13 C          60.3814   90.0083    8.8783 C.ar    1  UNL1        0.1827
     14 N          59.5189   89.7966    7.6695 N.ar    1  UNL1       -0.2223
     15 C          59.4598   88.3232    7.3944 C.ar    1  UNL1        0.1181
     16 C          60.2859   87.6243    8.4332 C.ar    1  UNL1        0.1125
     17 H          59.9343   84.4128    7.5286 H       1  UNL1        0.2128
     18 C          62.7515   84.7206   11.4261 C.ar    1  UNL1        0.0448
     19 C          62.4778   84.5850   12.8947 C.ar    1  UNL1        0.0037
     20 C          63.1614   83.5117   13.6889 C.ar    1  UNL1        0.0002
     21 C          64.1186   82.5741   13.0147 C.ar    1  UNL1        0.0023
     22 C          64.3922   82.7098   11.5460 C.ar    1  UNL1        0.0297
     23 C          63.7088   83.7830   10.7518 C.ar    1  UNL1        0.1415
     24 F          63.9824   83.9186    9.2832 F       1  UNL1       -0.2041
@<TRIPOS>BOND
     1     1     2    1
     2     2     3    1
     3     3     4    2
     4     4    18    1
     5    18    19   ar
     6    19    20   ar
     7    20    21   ar
     8    21    22   ar
     9    22    23   ar
    10    23    24    1
    11     4     5    1
    12     5     6   ar
    13     6     7   ar
    14     7     8    1
    15     7     9   ar
    16     9    10   ar
    17    10    11   ar
    18    11    12    1
    19    12    13   ar
    20    13    14   ar
    21    14    15   ar
    22    15    16   ar
    23    16     2    1
    24    23    18   ar
    25    11     5   ar
    26    16    12   ar
    27     1    17    1
@<TRIPOS>MOLECULE
*****
 24 27 0 0 0
SMALL
GASTEIGER

@<TRIPOS>ATOM
      1 O          60.3970   86.9492    8.4537 O.3     1  UNL1       -0.3596
      2 C          61.2263   86.9463    9.7036 C.3     1  UNL1        0.2582
      3 N          61.6043   85.5937   10.2306 N.2     1  UNL1       -0.2380
      4 C          62.4173   85.2571   11.4454 C.2     1  UNL1        0.0825
      5 C          63.0530   86.1898   12.4332 C.ar    1  UNL1        0.0344
      6 C          63.7813   85.4374   13.5072 C.ar    1  UNL1        0.0143
      7 C          64.4894   86.1847   14.5980 C.ar    1  UNL1        0.0578
      8 CL         65.2177   85.4323   15.6720 Cl      1  UNL1       -0.0822
      9 C          64.4692   87.6846   14.6150 C.ar    1  UNL1        0.0129
     10 C          63.7409   88.4370   13.5410 C.ar    1  UNL1        0.0185
     11 C          63.0329   87.6896   12.4501 C.ar    1  UNL1        0.0668
     12 N          62.3719   88.6271   11.4835 N.ar    1  UNL1       -0.2874
     13 C          62.4261   90.1205   11.6124 C.ar    1  UNL1        0.1827
     14 N          61.6556   90.7126   10.4697 N.ar    1  UNL1       -0.2223
     15 C          61.1252   89.5852    9.6346 C.ar    1  UNL1        0.1181
     16 C          61.5679   88.2962   10.2611 C.ar    1  UNL1        0.1125
     17 H          60.2305   86.0354    8.1739 H       1  UNL1        0.2128
     18 C          62.6215   83.7943   11.7070 C.ar    1  UNL1        0.0448
     19 C          62.0731   83.1722   12.9569 C.ar    1  UNL1        0.0037
     20 C          62.2774   81.7093   13.2185 C.ar    1  UNL1        0.0002
     21 C          63.0300   80.8686   12.2302 C.ar    1  UNL1        0.0023
     22 C          63.5784   81.4908   10.9803 C.ar    1  UNL1        0.0297
     23 C          63.3742   82.9535   10.7187 C.ar    1  UNL1        0.1415
     24 F          63.9226   83.5757    9.4687 F       1  UNL1       -0.2041
@<TRIPOS>BOND
     1     1     2    1
     2     2     3    1
     3     3     4    2
     4     4    18    1
     5    18    19   ar
     6    19    20   ar
     7    20    21   ar
     8    21    22   ar
     9    22    23   ar
    10    23    24    1
    11     4     5    1
    12     5     6   ar
    13     6     7   ar
    14     7     8    1
    15     7     9   ar
    16     9    10   ar
    17    10    11   ar
    18    11    12    1
    19    12    13   ar
    20    13    14   ar
    21    14    15   ar
    22    15    16   ar
    23    16     2    1
    24    23    18   ar
    25    11     5   ar
    26    16    12   ar
    27     1    17    1
@<TRIPOS>MOLECULE
*****
 24 27 0 0 0
SMALL
GASTEIGER

@<TRIPOS>ATOM
      1 O          60.3798   90.8118    9.6947 O.3     1  UNL1       -0.3596
      2 C          61.1135   89.7549   10.4658 C.3     1  UNL1        0.2582
      3 N          61.9757   90.2495   11.5892 N.2     1  UNL1       -0.2380
      4 C          62.8254   89.4545   12.5358 C.2     1  UNL1        0.0825
      5 C          63.0227   87.9686   12.5929 C.ar    1  UNL1        0.0344
      6 C          63.9599   87.5823   13.6985 C.ar    1  UNL1        0.0143
      7 C          64.2935   86.1381   13.9285 C.ar    1  UNL1        0.0578
      8 CL         65.2307   85.7517   15.0341 Cl      1  UNL1       -0.0822
      9 C          63.6898   85.0801   13.0530 C.ar    1  UNL1        0.0129
     10 C          62.7525   85.4665   11.9475 C.ar    1  UNL1        0.0185
     11 C          62.4190   86.9107   11.7174 C.ar    1  UNL1        0.0668
     12 N          61.4689   87.0774   10.5686 N.ar    1  UNL1       -0.2874
     13 C          60.9334   85.9291    9.7658 C.ar    1  UNL1        0.1827
     14 N          60.0215   86.4851    8.7127 N.ar    1  UNL1       -0.2223
     15 C          59.9934   87.9772    8.8646 C.ar    1  UNL1        0.1181
     16 C          60.8879   88.3432   10.0116 C.ar    1  UNL1        0.1125
     17 H          60.5897   91.6845   10.0623 H       1  UNL1        0.2128
     18 C          63.5772   90.2506   13.5609 C.ar    1  UNL1        0.0448
     19 C          63.2613   90.0859   15.0180 C.ar    1  UNL1        0.0037
     20 C          64.0132   90.8821   16.0431 C.ar    1  UNL1        0.0002
     21 C          65.0809   91.8430   15.6112 C.ar    1  UNL1        0.0023
     22 C          65.3968   92.0077   14.1540 C.ar    1  UNL1        0.0297
     23 C          64.6450   91.2116   13.1290 C.ar    1  UNL1        0.1415
     24 F          64.9609   91.3763   11.6718 F       1  UNL1       -0.2041
@<TRIPOS>BOND
     1     1     2    1
     2     2     3    1
     3     3     4    2
     4     4    18    1
     5    18    19   ar
     6    19    20   ar
     7    20    21   ar
     8    21    22   ar
     9    22    23   ar
    10    23    24    1
    11     4     5    1
    12     5     6   ar
    13     6     7   ar
    14     7     8    1
    15     7     9   ar
    16     9    10   ar
    17    10    11   ar
    18    11    12    1
    19    12    13   ar
    20    13    14   ar
    21    14    15   ar
    22    15    16   ar
    23    16     2    1
    24    23    18   ar
    25    11     5   ar
    26    16    12   ar
    27     1    17    1
