@<TRIPOS>MOLECULE
*****
 36 42 0 0 0
SMALL
GASTEIGER

@<TRIPOS>ATOM
      1 N          61.8194   90.3991   10.0358 N.pl3   1  UNL1       -0.3414
      2 C          61.4227   88.9526   10.0450 C.ar    1  UNL1        0.1432
      3 N          60.3930   88.4511    9.0763 N.ar    1  UNL1       -0.2265
      4 C          59.9963   87.0045    9.0855 C.ar    1  UNL1        0.1193
      5 C          60.6294   86.0595   10.0634 C.ar    1  UNL1        0.1020
      6 N          61.6591   86.5609   11.0319 N.ar    1  UNL1       -0.2885
      7 C          62.0557   88.0075   11.0228 C.ar    1  UNL1        0.1141
      8 C          63.0913   88.2110   12.0887 C.ar    1  UNL1        0.1014
      9 N          63.3347   86.8902   12.7567 N.ar    1  UNL1       -0.2305
     10 C          62.4495   85.8704   12.1036 C.ar    1  UNL1        0.1239
     11 H          61.4040   91.0194    9.3940 H       1  UNL1        0.1438
     12 H          62.4952   90.7282   10.6715 H       1  UNL1        0.1438
     13 C          63.7652   89.5077   12.4272 C.ar    1  UNL1        0.0207
     14 C          64.0506   89.8533   13.8587 C.ar    1  UNL1        0.0016
     15 C          64.7245   91.1499   14.1971 C.ar    1  UNL1        0.0015
     16 C          65.1130   92.1009   13.1041 C.ar    1  UNL1        0.0177
     17 C          65.7869   93.3976   13.4426 C.ar    1  UNL1        0.0030
     18 C          66.1754   94.3486   12.3496 C.ar    1  UNL1        0.0191
     19 C          65.8900   94.0029   10.9181 C.ar    1  UNL1        0.0812
     20 N          65.2161   92.7063   10.5797 N.ar    1  UNL1       -0.2454
     21 C          64.8276   91.7553   11.6727 C.ar    1  UNL1        0.0813
     22 C          64.1537   90.4587   11.3342 C.ar    1  UNL1        0.0206
     23 C          66.2785   94.9539    9.8251 C.ar    1  UNL1        0.0176
     24 C          65.2639   95.9048    9.2625 C.ar    1  UNL1        0.0015
     25 C          65.6524   96.8558    8.1695 C.ar    1  UNL1        0.0000
     26 C          67.0555   96.8559    7.6391 C.ar    1  UNL1        0.0000
     27 C          68.0701   95.9051    8.2017 C.ar    1  UNL1        0.0000
     28 C          67.6816   94.9541    9.2947 C.ar    1  UNL1        0.0015
     29 C          62.3689   84.4154   12.4596 C.3     1  UNL1        0.0599
     30 C          62.4365   83.1298   11.6899 C.3     1  UNL1        0.0235
     31 C          62.2549   82.3579   12.9632 C.3     1  UNL1        0.0584
     32 C          62.1873   83.6436   13.7329 C.3     1  UNL1        0.0235
     33 N          62.1743   80.9030   13.3192 N.3     1  UNL1       -0.2738
     34 C          62.9501   79.6750   12.9450 C.3     1  UNL1        0.0735
     35 C          62.0603   78.8455   13.8227 C.3     1  UNL1        0.0346
     36 C          61.2845   80.0735   14.1969 C.3     1  UNL1        0.0735
@<TRIPOS>BOND
     1     1     2    1
     2     2     3   ar
     3     3     4   ar
     4     4     5   ar
     5     5     6   ar
     6     6     7   ar
     7     7     8   ar
     8     8    13    1
     9    13    14   ar
    10    14    15   ar
    11    15    16   ar
    12    16    17   ar
    13    17    18   ar
    14    18    19   ar
    15    19    23    1
    16    23    24   ar
    17    24    25   ar
    18    25    26   ar
    19    26    27   ar
    20    27    28   ar
    21    19    20   ar
    22    20    21   ar
    23    21    22   ar
    24     8     9   ar
    25     9    10   ar
    26    29    10    1
    27    29    30    1
    28    30    31    1
    29    31    33    1
    30    33    34    1
    31    34    35    1
    32    35    36    1
    33    31    32    1
    34     7     2   ar
    35    22    13   ar
    36    32    29    1
    37    10     6   ar
    38    36    33    1
    39    21    16   ar
    40    28    23   ar
    41     1    11    1
    42     1    12    1
@<TRIPOS>MOLECULE
*****
 36 42 0 0 0
SMALL
GASTEIGER

@<TRIPOS>ATOM
      1 N          63.5923   89.9838   17.3475 N.pl3   1  UNL1       -0.3414
      2 C          63.2314   88.5682   17.0072 C.ar    1  UNL1        0.1432
      3 N          62.4996   87.7201   18.0049 N.ar    1  UNL1       -0.2265
      4 C          62.1387   86.3046   17.6645 C.ar    1  UNL1        0.1193
      5 C          62.5096   85.7370   16.3264 C.ar    1  UNL1        0.1020
      6 N          63.2414   86.5850   15.3288 N.ar    1  UNL1       -0.2885
      7 C          63.6023   88.0006   15.6692 C.ar    1  UNL1        0.1141
      8 C          64.3193   88.5921   14.4919 C.ar    1  UNL1        0.1014
      9 N          64.4015   87.5421   13.4239 N.ar    1  UNL1       -0.2305
     10 C          63.7353   86.3016   13.9411 C.ar    1  UNL1        0.1239
     11 H          63.3488   90.3563   18.2257 H       1  UNL1        0.1438
     12 H          64.0726   90.5403   16.6927 H       1  UNL1        0.1438
     13 C          64.8592   89.9885   14.3989 C.ar    1  UNL1        0.0207
     14 C          65.3555   90.6843   15.6315 C.ar    1  UNL1        0.0016
     15 C          65.8955   92.0806   15.5385 C.ar    1  UNL1        0.0015
     16 C          65.9391   92.7811   14.2129 C.ar    1  UNL1        0.0177
     17 C          66.4791   94.1776   14.1199 C.ar    1  UNL1        0.0030
     18 C          66.5227   94.8781   12.7943 C.ar    1  UNL1        0.0191
     19 C          66.0263   94.1822   11.5616 C.ar    1  UNL1        0.0812
     20 N          65.4864   92.7859   11.6546 N.ar    1  UNL1       -0.2454
     21 C          65.4428   92.0853   12.9802 C.ar    1  UNL1        0.0813
     22 C          64.9029   90.6890   13.0732 C.ar    1  UNL1        0.0206
     23 C          66.0699   94.8827   10.2359 C.ar    1  UNL1        0.0176
     24 C          65.2178   96.0944    9.9995 C.ar    1  UNL1        0.0015
     25 C          65.2614   96.7949    8.6738 C.ar    1  UNL1        0.0000
     26 C          66.1572   96.2837    7.5846 C.ar    1  UNL1        0.0000
     27 C          67.0093   95.0722    7.8210 C.ar    1  UNL1        0.0000
     28 C          66.9656   94.3716    9.1467 C.ar    1  UNL1        0.0015
     29 C          63.5889   85.0054   13.2007 C.3     1  UNL1        0.0599
     30 C          62.7669   84.5354   12.0373 C.3     1  UNL1        0.0235
     31 C          63.3817   83.1721   12.1535 C.3     1  UNL1        0.0584
     32 C          64.2037   83.6421   13.3169 C.3     1  UNL1        0.0235
     33 N          63.2352   81.8759   11.4131 N.3     1  UNL1       -0.2738
     34 C          63.4826   81.4256   10.0039 C.3     1  UNL1        0.0735
     35 C          63.0281   80.0427   10.3660 C.3     1  UNL1        0.0346
     36 C          62.7807   80.4930   11.7753 C.3     1  UNL1        0.0735
@<TRIPOS>BOND
     1     1     2    1
     2     2     3   ar
     3     3     4   ar
     4     4     5   ar
     5     5     6   ar
     6     6     7   ar
     7     7     8   ar
     8     8    13    1
     9    13    14   ar
    10    14    15   ar
    11    15    16   ar
    12    16    17   ar
    13    17    18   ar
    14    18    19   ar
    15    19    23    1
    16    23    24   ar
    17    24    25   ar
    18    25    26   ar
    19    26    27   ar
    20    27    28   ar
    21    19    20   ar
    22    20    21   ar
    23    21    22   ar
    24     8     9   ar
    25     9    10   ar
    26    29    10    1
    27    29    30    1
    28    30    31    1
    29    31    33    1
    30    33    34    1
    31    34    35    1
    32    35    36    1
    33    31    32    1
    34     7     2   ar
    35    22    13   ar
    36    32    29    1
    37    10     6   ar
    38    36    33    1
    39    21    16   ar
    40    28    23   ar
    41     1    11    1
    42     1    12    1
@<TRIPOS>MOLECULE
*****
 36 42 0 0 0
SMALL
GASTEIGER

@<TRIPOS>ATOM
      1 N          63.1331   88.9783   17.5283 N.pl3   1  UNL1       -0.3414
      2 C          63.6080   90.2029   16.8040 C.ar    1  UNL1        0.1432
      3 N          63.6109   91.5319   17.4996 N.ar    1  UNL1       -0.2265
      4 C          64.0858   92.7565   16.7753 C.ar    1  UNL1        0.1193
      5 C          64.5578   92.6522   15.3553 C.ar    1  UNL1        0.1020
      6 N          64.5549   91.3233   14.6597 N.ar    1  UNL1       -0.2885
      7 C          64.0800   90.0987   15.3840 C.ar    1  UNL1        0.1141
      8 C          64.1909   88.9332   14.4462 C.ar    1  UNL1        0.1014
      9 N          64.7343   89.4376   13.1422 N.ar    1  UNL1       -0.2305
     10 C          64.9593   90.9148   13.2742 C.ar    1  UNL1        0.1239
     11 H          62.8233   89.0467   18.4602 H       1  UNL1        0.1438
     12 H          63.1312   88.1060   17.0717 H       1  UNL1        0.1438
     13 C          63.8229   87.5128   14.7576 C.ar    1  UNL1        0.0207
     14 C          63.4791   87.1180   16.1633 C.ar    1  UNL1        0.0016
     15 C          63.1112   85.6976   16.4747 C.ar    1  UNL1        0.0015
     16 C          63.0869   84.6720   15.3804 C.ar    1  UNL1        0.0177
     17 C          62.7189   83.2515   15.6919 C.ar    1  UNL1        0.0030
     18 C          62.6946   82.2259   14.5976 C.ar    1  UNL1        0.0191
     19 C          63.0384   82.6207   13.1919 C.ar    1  UNL1        0.0812
     20 N          63.4063   84.0411   12.8805 N.ar    1  UNL1       -0.2454
     21 C          63.4306   85.0667   13.9748 C.ar    1  UNL1        0.0813
     22 C          63.7986   86.4871   13.6634 C.ar    1  UNL1        0.0206
     23 C          63.0141   81.5950   12.0976 C.ar    1  UNL1        0.0176
     24 C          63.3725   81.9866   10.6946 C.ar    1  UNL1        0.0015
     25 C          63.3482   80.9609    9.6003 C.ar    1  UNL1        0.0000
     26 C          62.9655   79.5437    9.9090 C.ar    1  UNL1        0.0000
     27 C          62.6072   79.1523   11.3120 C.ar    1  UNL1        0.0000
     28 C          62.6314   80.1779   12.4063 C.ar    1  UNL1        0.0015
     29 C          65.4947   91.8238   12.2078 C.3     1  UNL1        0.0599
     30 C          64.9945   92.3115   10.8805 C.3     1  UNL1        0.0235
     31 C          66.2519   93.1093   10.6999 C.3     1  UNL1        0.0584
     32 C          66.7520   92.6216   12.0272 C.3     1  UNL1        0.0235
     33 N          66.7873   94.0184    9.6335 N.3     1  UNL1       -0.2738
     34 C          67.8687   93.9180    8.5990 C.3     1  UNL1        0.0735
     35 C          67.5444   95.3039    8.1255 C.3     1  UNL1        0.0346
     36 C          66.4629   95.4043    9.1601 C.3     1  UNL1        0.0735
@<TRIPOS>BOND
     1     1     2    1
     2     2     3   ar
     3     3     4   ar
     4     4     5   ar
     5     5     6   ar
     6     6     7   ar
     7     7     8   ar
     8     8    13    1
     9    13    14   ar
    10    14    15   ar
    11    15    16   ar
    12    16    17   ar
    13    17    18   ar
    14    18    19   ar
    15    19    23    1
    16    23    24   ar
    17    24    25   ar
    18    25    26   ar
    19    26    27   ar
    20    27    28   ar
    21    19    20   ar
    22    20    21   ar
    23    21    22   ar
    24     8     9   ar
    25     9    10   ar
    26    29    10    1
    27    29    30    1
    28    30    31    1
    29    31    33    1
    30    33    34    1
    31    34    35    1
    32    35    36    1
    33    31    32    1
    34     7     2   ar
    35    22    13   ar
    36    32    29    1
    37    10     6   ar
    38    36    33    1
    39    21    16   ar
    40    28    23   ar
    41     1    11    1
    42     1    12    1
