@<TRIPOS>MOLECULE
*****
 44 48 0 0 0
SMALL
GASTEIGER

@<TRIPOS>ATOM
      1 N          61.6184   88.4495   10.4415 N.am    1  UNL1       -0.2733
      2 C          62.3310   87.6321   11.4779 C.2     1  UNL1        0.2462
      3 O          63.0679   88.3124   12.5933 O.2     1  UNL1       -0.2730
      4 C          62.3066   86.1344   11.3990 C.3     1  UNL1        0.1759
      5 N          61.5697   85.4541   10.2836 N.am    1  UNL1       -0.2951
      6 C          60.8571   86.2714    9.2472 C.2     1  UNL1        0.2390
      7 O          60.1202   85.5911    8.1318 O.2     1  UNL1       -0.2734
      8 C          60.8815   87.7692    9.3261 C.3     1  UNL1        0.1314
      9 C          60.9059   89.2669    9.4051 C.3     1  UNL1        0.0445
     10 C          60.1933   90.0842    8.3687 C.3     1  UNL1        0.0745
     11 N          59.4564   89.4039    7.2533 N.3     1  UNL1       -0.2688
     12 C          59.4320   87.9062    7.1743 C.3     1  UNL1        0.0745
     13 C          60.1446   87.0889    8.2107 C.3     1  UNL1        0.0445
     14 H          61.5537   84.4711   10.2317 H       1  UNL1        0.1499
     15 C          63.0192   85.3170   12.4354 C.3     1  UNL1        0.1372
     16 O          63.7931   85.9974   13.5254 O.3     1  UNL1       -0.3823
     17 H          63.7308   86.9590   13.4143 H       1  UNL1        0.2104
     18 C          62.9578   83.8192   12.3818 C.3     1  UNL1        0.0291
     19 C          62.3903   83.0500   13.5378 C.3     1  UNL1        0.0025
     20 C          62.3288   81.5523   13.4842 C.3     1  UNL1        0.0001
     21 C          62.8350   80.8236   12.2746 C.3     1  UNL1        0.0000
     22 C          63.4025   81.5928   11.1187 C.3     1  UNL1        0.0001
     23 C          63.4639   83.0907   11.1723 C.3     1  UNL1        0.0025
     24 C          61.6428   89.9472   10.5205 C.3     1  UNL1        0.0938
     25 C          62.8895   90.6973   10.1558 C.3     1  UNL1        0.0215
     26 C          64.8898   92.1947   10.8675 C.3     1  UNL1        0.0001
     27 C          63.7497   91.2907   11.2319 C.3     1  UNL1        0.0018
     28 C          58.7438   90.2213    6.2169 C.3     1  UNL1        0.0992
     29 C          59.5296   90.9691    5.1809 C.ar    1  UNL1       -0.0059
     30 C          58.8740   92.0567    4.3827 C.ar    1  UNL1        0.0002
     31 C          59.6599   92.8044    3.3466 C.ar    1  UNL1        0.0372
     32 C          61.1013   92.4645    3.1088 C.ar    1  UNL1        0.1453
     33 C          61.7570   91.3769    3.9070 C.ar    1  UNL1        0.0372
     34 C          60.9712   90.6292    4.9430 C.ar    1  UNL1        0.0002
     35 O          61.8871   93.2122    2.0728 O.3     1  UNL1       -0.4535
     36 C          61.3465   93.3566    0.6811 C.ar    1  UNL1        0.1453
     37 C          60.3506   92.3651    0.1567 C.ar    1  UNL1        0.0375
     38 C          59.8101   92.5094   -1.2350 C.ar    1  UNL1        0.0043
     39 C          60.2653   93.6453   -2.1024 C.ar    1  UNL1        0.0142
     40 C          61.2613   94.6370   -1.5781 C.ar    1  UNL1        0.0043
     41 C          61.8019   94.4926   -0.1863 C.ar    1  UNL1        0.0375
     42 C          59.7248   93.7897   -3.4941 C.2     1  UNL1        0.0729
     43 O          60.4262   94.6726   -4.4834 O.co2   1  UNL1       -0.5446
     44 O          58.4828   93.0512   -3.8967 O.co2   1  UNL1       -0.5446
@<TRIPOS>UNITY_ATOM_ATTR
43 1
charge -1
@<TRIPOS>BOND
     1    26    27    1
     2    27    25    1
     3    25    24    1
     4    24     1    1
     5     1     2   am
     6     2     3    2
     7     2     4    1
     8     4    15    1
     9    15    16    1
    10    15    18    1
    11    18    19    1
    12    19    20    1
    13    20    21    1
    14    21    22    1
    15    22    23    1
    16     4     5    1
    17     5     6   am
    18     6     7    2
    19     6     8    1
    20     8     9    1
    21     9    10    1
    22    10    11    1
    23    11    28    1
    24    28    29    1
    25    29    30   ar
    26    30    31   ar
    27    31    32   ar
    28    32    35    1
    29    35    36    1
    30    36    37   ar
    31    37    38   ar
    32    38    39   ar
    33    39    42    1
    34    42    43   ar
    35    42    44   ar
    36    39    40   ar
    37    40    41   ar
    38    32    33   ar
    39    33    34   ar
    40    11    12    1
    41    12    13    1
    42     8     1    1
    43    34    29   ar
    44    23    18    1
    45    13     8    1
    46    41    36   ar
    47    16    17    1
    48     5    14    1
@<TRIPOS>MOLECULE
*****
 44 48 0 0 0
SMALL
GASTEIGER

@<TRIPOS>ATOM
      1 N          62.1651   87.4018   11.2235 N.am    1  UNL1       -0.2733
      2 C          63.0117   87.3933   12.4618 C.2     1  UNL1        0.2462
      3 O          63.4276   86.0900   13.0770 O.2     1  UNL1       -0.2730
      4 C          63.4424   88.6880   13.0848 C.3     1  UNL1        0.1759
      5 N          63.0266   89.9913   12.4696 N.am    1  UNL1       -0.2951
      6 C          62.1800   89.9999   11.2314 C.2     1  UNL1        0.2390
      7 O          61.7641   91.3032   10.6162 O.2     1  UNL1       -0.2734
      8 C          61.7492   88.7051   10.6084 C.3     1  UNL1        0.1314
      9 C          61.3185   87.4104    9.9853 C.3     1  UNL1        0.0445
     10 C          60.4720   87.4190    8.7471 C.3     1  UNL1        0.0745
     11 N          60.0561   88.7223    8.1320 N.3     1  UNL1       -0.2688
     12 C          60.4868   90.0170    8.7550 C.3     1  UNL1        0.0745
     13 C          61.3334   90.0084    9.9932 C.3     1  UNL1        0.0445
     14 H          63.3093   90.8410   12.8785 H       1  UNL1        0.1499
     15 C          64.2891   88.6794   14.3231 C.3     1  UNL1        0.1372
     16 O          64.7188   87.3762   14.9288 O.3     1  UNL1       -0.3823
     17 H          64.3667   86.6426   14.4009 H       1  UNL1        0.2104
     18 C          64.7059   89.9741   14.9556 C.3     1  UNL1        0.0291
     19 C          63.8652   90.5855   16.0369 C.3     1  UNL1        0.0025
     20 C          64.2820   91.8801   16.6694 C.3     1  UNL1        0.0001
     21 C          65.5397   92.5634   16.2205 C.3     1  UNL1        0.0000
     22 C          66.3805   91.9520   15.1392 C.3     1  UNL1        0.0001
     23 C          65.9635   90.6573   14.5067 C.3     1  UNL1        0.0025
     24 C          61.7344   86.1071   10.6005 C.3     1  UNL1        0.0938
     25 C          62.7575   85.1797   10.0148 C.3     1  UNL1        0.0215
     26 C          64.1951   83.0222   10.1834 C.3     1  UNL1        0.0001
     27 C          63.1277   83.9185   10.7376 C.3     1  UNL1        0.0018
     28 C          59.2095   88.7308    6.8937 C.3     1  UNL1        0.0992
     29 C          59.2394   89.9145    5.9728 C.ar    1  UNL1       -0.0059
     30 C          57.9691   90.6416    5.6444 C.ar    1  UNL1        0.0002
     31 C          57.9991   91.8253    4.7235 C.ar    1  UNL1        0.0372
     32 C          59.2993   92.2819    4.1311 C.ar    1  UNL1        0.1453
     33 C          60.5695   91.5548    4.4595 C.ar    1  UNL1        0.0372
     34 C          60.5396   90.3711    5.3803 C.ar    1  UNL1        0.0002
     35 O          59.3292   93.4655    3.2102 O.3     1  UNL1       -0.4535
     36 C          60.1804   93.4339    1.9755 C.ar    1  UNL1        0.1453
     37 C          61.4863   94.1711    1.9457 C.ar    1  UNL1        0.0375
     38 C          62.3375   94.1394    0.7110 C.ar    1  UNL1        0.0043
     39 C          61.8826   93.3706   -0.4940 C.ar    1  UNL1        0.0142
     40 C          60.5766   92.6333   -0.4642 C.ar    1  UNL1        0.0043
     41 C          59.7255   92.6650    0.7705 C.ar    1  UNL1        0.0375
     42 C          62.7338   93.3389   -1.7287 C.2     1  UNL1        0.0729
     43 O          64.2061   93.6089   -1.6318 O.co2   1  UNL1       -0.5446
     44 O          62.1126   93.0373   -3.0603 O.co2   1  UNL1       -0.5446
@<TRIPOS>UNITY_ATOM_ATTR
43 1
charge -1
@<TRIPOS>BOND
     1    26    27    1
     2    27    25    1
     3    25    24    1
     4    24     1    1
     5     1     2   am
     6     2     3    2
     7     2     4    1
     8     4    15    1
     9    15    16    1
    10    15    18    1
    11    18    19    1
    12    19    20    1
    13    20    21    1
    14    21    22    1
    15    22    23    1
    16     4     5    1
    17     5     6   am
    18     6     7    2
    19     6     8    1
    20     8     9    1
    21     9    10    1
    22    10    11    1
    23    11    28    1
    24    28    29    1
    25    29    30   ar
    26    30    31   ar
    27    31    32   ar
    28    32    35    1
    29    35    36    1
    30    36    37   ar
    31    37    38   ar
    32    38    39   ar
    33    39    42    1
    34    42    43   ar
    35    42    44   ar
    36    39    40   ar
    37    40    41   ar
    38    32    33   ar
    39    33    34   ar
    40    11    12    1
    41    12    13    1
    42     8     1    1
    43    34    29   ar
    44    23    18    1
    45    13     8    1
    46    41    36   ar
    47    16    17    1
    48     5    14    1
@<TRIPOS>MOLECULE
*****
 44 48 0 0 0
SMALL
GASTEIGER

@<TRIPOS>ATOM
      1 N          61.7017   87.0815   10.4138 N.am    1  UNL1       -0.2733
      2 C          62.5492   86.0814   11.1429 C.2     1  UNL1        0.2462
      3 O          63.1118   86.4172   12.4923 O.2     1  UNL1       -0.2730
      4 C          62.8340   84.7457   10.5228 C.3     1  UNL1        0.1759
      5 N          62.2715   84.4100    9.1734 N.am    1  UNL1       -0.2951
      6 C          61.4240   85.4100    8.4442 C.2     1  UNL1        0.2390
      7 O          60.8614   85.0743    7.0948 O.2     1  UNL1       -0.2734
      8 C          61.1391   86.7458    9.0644 C.3     1  UNL1        0.1314
      9 C          60.8542   88.0815    9.6846 C.3     1  UNL1        0.0445
     10 C          60.0067   89.0815    8.9554 C.3     1  UNL1        0.0745
     11 N          59.4441   88.7458    7.6060 N.3     1  UNL1       -0.2688
     12 C          59.7290   87.4101    6.9858 C.3     1  UNL1        0.0745
     13 C          60.5765   86.4101    7.7150 C.3     1  UNL1        0.0445
     14 H          62.4584   83.5333    8.7663 H       1  UNL1        0.1499
     15 C          63.6816   83.7457   11.2519 C.3     1  UNL1        0.1372
     16 O          65.1580   83.6843   10.9946 O.3     1  UNL1       -0.3823
     17 H          65.3994   84.3536   10.3352 H       1  UNL1        0.2104
     18 C          63.0526   82.8070   12.2384 C.3     1  UNL1        0.0291
     19 C          62.8814   81.3579   11.8908 C.3     1  UNL1        0.0025
     20 C          62.2524   80.4192   12.8773 C.3     1  UNL1        0.0001
     21 C          61.7946   80.9296   14.2115 C.3     1  UNL1        0.0000
     22 C          61.9658   82.3787   14.5591 C.3     1  UNL1        0.0001
     23 C          62.5948   83.3174   13.5725 C.3     1  UNL1        0.0025
     24 C          61.4168   88.4172   11.0339 C.3     1  UNL1        0.0938
     25 C          62.5044   89.1563   11.7557 C.3     1  UNL1        0.0215
     26 C          62.9661   91.0925   10.0859 C.3     1  UNL1        0.0001
     27 C          62.7251   90.6155   11.4875 C.3     1  UNL1        0.0018
     28 C          58.5966   89.7459    6.8768 C.3     1  UNL1        0.0992
     29 C          59.1998   90.5949    5.7973 C.ar    1  UNL1       -0.0059
     30 C          58.3385   91.5495    5.0247 C.ar    1  UNL1        0.0002
     31 C          58.9417   92.3985    3.9451 C.ar    1  UNL1        0.0372
     32 C          60.4062   92.2929    3.6382 C.ar    1  UNL1        0.1453
     33 C          61.2675   91.3383    4.4109 C.ar    1  UNL1        0.0372
     34 C          60.6643   90.4893    5.4904 C.ar    1  UNL1        0.0002
     35 O          61.0093   93.1418    2.5587 O.3     1  UNL1       -0.4535
     36 C          60.3063   93.2926    1.2423 C.ar    1  UNL1        0.1453
     37 C          60.3897   92.1999    0.2181 C.ar    1  UNL1        0.0375
     38 C          59.6867   92.3507   -1.0984 C.ar    1  UNL1        0.0043
     39 C          58.9002   93.5940   -1.3906 C.ar    1  UNL1        0.0142
     40 C          58.8167   94.6867   -0.3663 C.ar    1  UNL1        0.0043
     41 C          59.5197   94.5360    0.9502 C.ar    1  UNL1        0.0375
     42 C          58.1971   93.7447   -2.7070 C.2     1  UNL1        0.0729
     43 O          57.9752   92.5455   -3.5804 O.co2   1  UNL1       -0.5446
     44 O          57.7159   95.0946   -3.1500 O.co2   1  UNL1       -0.5446
@<TRIPOS>UNITY_ATOM_ATTR
43 1
charge -1
@<TRIPOS>BOND
     1    26    27    1
     2    27    25    1
     3    25    24    1
     4    24     1    1
     5     1     2   am
     6     2     3    2
     7     2     4    1
     8     4    15    1
     9    15    16    1
    10    15    18    1
    11    18    19    1
    12    19    20    1
    13    20    21    1
    14    21    22    1
    15    22    23    1
    16     4     5    1
    17     5     6   am
    18     6     7    2
    19     6     8    1
    20     8     9    1
    21     9    10    1
    22    10    11    1
    23    11    28    1
    24    28    29    1
    25    29    30   ar
    26    30    31   ar
    27    31    32   ar
    28    32    35    1
    29    35    36    1
    30    36    37   ar
    31    37    38   ar
    32    38    39   ar
    33    39    42    1
    34    42    43   ar
    35    42    44   ar
    36    39    40   ar
    37    40    41   ar
    38    32    33   ar
    39    33    34   ar
    40    11    12    1
    41    12    13    1
    42     8     1    1
    43    34    29   ar
    44    23    18    1
    45    13     8    1
    46    41    36   ar
    47    16    17    1
    48     5    14    1
@<TRIPOS>MOLECULE
*****
 44 48 0 0 0
SMALL
GASTEIGER

@<TRIPOS>ATOM
      1 N          62.2393   87.4289   11.1276 N.am    1  UNL1       -0.2733
      2 C          63.0684   87.4158   12.3777 C.2     1  UNL1        0.2462
      3 O          63.6132   86.1207   12.9028 O.2     1  UNL1       -0.2730
      4 C          63.3525   88.6979   13.1026 C.3     1  UNL1        0.1759
      5 N          62.8077   89.9930   12.5775 N.am    1  UNL1       -0.2951
      6 C          61.9787   90.0061   11.3275 C.2     1  UNL1        0.2390
      7 O          61.4339   91.3013   10.8024 O.2     1  UNL1       -0.2734
      8 C          61.6945   88.7240   10.6025 C.3     1  UNL1        0.1314
      9 C          61.4103   87.4420    9.8776 C.3     1  UNL1        0.0445
     10 C          60.5814   87.4551    8.6276 C.3     1  UNL1        0.0745
     11 N          60.0365   88.7502    8.1025 N.3     1  UNL1       -0.2688
     12 C          60.3207   90.0323    8.8274 C.3     1  UNL1        0.0745
     13 C          61.1497   90.0192   10.0774 C.3     1  UNL1        0.0445
     14 H          62.9942   90.8345   13.0533 H       1  UNL1        0.1499
     15 C          64.1816   88.6848   14.3526 C.3     1  UNL1        0.1372
     16 O          65.4239   89.5211   14.4374 O.3     1  UNL1       -0.3823
     17 H          65.5454   90.0048   13.6055 H       1  UNL1        0.2104
     18 C          63.7682   87.8356   15.5179 C.3     1  UNL1        0.0291
     19 C          64.0670   86.3656   15.5181 C.3     1  UNL1        0.0025
     20 C          63.6537   85.5164   16.6833 C.3     1  UNL1        0.0001
     21 C          62.9414   86.1370   17.8485 C.3     1  UNL1        0.0000
     22 C          62.6425   87.6070   17.8483 C.3     1  UNL1        0.0001
     23 C          63.0559   88.4562   16.6830 C.3     1  UNL1        0.0025
     24 C          61.9552   86.1468   10.4027 C.3     1  UNL1        0.0938
     25 C          62.9903   85.5542    9.4931 C.3     1  UNL1        0.0215
     26 C          64.1164   83.4782   10.5757 C.3     1  UNL1        0.0001
     27 C          63.2462   84.0763    9.5103 C.3     1  UNL1        0.0018
     28 C          59.2075   88.7633    6.8524 C.3     1  UNL1        0.0992
     29 C          59.2488   89.9512    5.9375 C.ar    1  UNL1       -0.0059
     30 C          57.9829   90.6809    5.5982 C.ar    1  UNL1        0.0002
     31 C          58.0243   91.8689    4.6832 C.ar    1  UNL1        0.0372
     32 C          59.3314   92.3270    4.1075 C.ar    1  UNL1        0.1453
     33 C          60.5973   91.5973    4.4468 C.ar    1  UNL1        0.0372
     34 C          60.5560   90.4094    5.3617 C.ar    1  UNL1        0.0002
     35 O          59.3727   93.5149    3.1926 O.3     1  UNL1       -0.4535
     36 C          60.3102   93.5275    2.0217 C.ar    1  UNL1        0.1453
     37 C          60.1545   92.5158    0.9252 C.ar    1  UNL1        0.0375
     38 C          61.0919   92.5284   -0.2456 C.ar    1  UNL1        0.0043
     39 C          62.1852   93.5527   -0.3201 C.ar    1  UNL1        0.0142
     40 C          62.3410   94.5645    0.7764 C.ar    1  UNL1        0.0043
     41 C          61.4035   94.5519    1.9472 C.ar    1  UNL1        0.0375
     42 C          63.1227   93.5654   -1.4910 C.2     1  UNL1        0.0729
     43 O          64.4683   94.2166   -1.3674 O.co2   1  UNL1       -0.5446
     44 O          62.7146   92.9267   -2.7854 O.co2   1  UNL1       -0.5446
@<TRIPOS>UNITY_ATOM_ATTR
43 1
charge -1
@<TRIPOS>BOND
     1    26    27    1
     2    27    25    1
     3    25    24    1
     4    24     1    1
     5     1     2   am
     6     2     3    2
     7     2     4    1
     8     4    15    1
     9    15    16    1
    10    15    18    1
    11    18    19    1
    12    19    20    1
    13    20    21    1
    14    21    22    1
    15    22    23    1
    16     4     5    1
    17     5     6   am
    18     6     7    2
    19     6     8    1
    20     8     9    1
    21     9    10    1
    22    10    11    1
    23    11    28    1
    24    28    29    1
    25    29    30   ar
    26    30    31   ar
    27    31    32   ar
    28    32    35    1
    29    35    36    1
    30    36    37   ar
    31    37    38   ar
    32    38    39   ar
    33    39    42    1
    34    42    43   ar
    35    42    44   ar
    36    39    40   ar
    37    40    41   ar
    38    32    33   ar
    39    33    34   ar
    40    11    12    1
    41    12    13    1
    42     8     1    1
    43    34    29   ar
    44    23    18    1
    45    13     8    1
    46    41    36   ar
    47    16    17    1
    48     5    14    1
@<TRIPOS>MOLECULE
*****
 44 48 0 0 0
SMALL
GASTEIGER

@<TRIPOS>ATOM
      1 N          61.7148   85.7910    9.1610 N.am    1  UNL1       -0.2733
      2 C          62.5840   85.0503   10.1336 C.2     1  UNL1        0.2462
      3 O          63.2569   83.7757    9.7183 O.2     1  UNL1       -0.2730
      4 C          62.7804   85.5844   11.5215 C.3     1  UNL1        0.1759
      5 N          62.1075   86.8590   11.9368 N.am    1  UNL1       -0.2951
      6 C          61.2382   87.5996   10.9643 C.2     1  UNL1        0.2390
      7 O          60.5654   88.8743   11.3796 O.2     1  UNL1       -0.2734
      8 C          61.0419   87.0656    9.5763 C.3     1  UNL1        0.1314
      9 C          60.8455   86.5316    8.1885 C.3     1  UNL1        0.0445
     10 C          59.9763   87.2722    7.2160 C.3     1  UNL1        0.0745
     11 N          59.3034   88.5468    7.6313 N.3     1  UNL1       -0.2688
     12 C          59.4997   89.0809    9.0191 C.3     1  UNL1        0.0745
     13 C          60.3690   88.3402    9.9917 C.3     1  UNL1        0.0445
     14 H          62.2364   87.2095   12.8478 H       1  UNL1        0.1499
     15 C          63.6496   84.8437   12.4941 C.3     1  UNL1        0.1372
     16 O          64.6413   83.8345   11.9960 O.3     1  UNL1       -0.3823
     17 H          64.5921   83.7831   11.0286 H       1  UNL1        0.2104
     18 C          63.5273   85.1124   13.9648 C.3     1  UNL1        0.0291
     19 C          64.3506   86.1929   14.6009 C.3     1  UNL1        0.0025
     20 C          64.2282   86.4616   16.0715 C.3     1  UNL1        0.0001
     21 C          63.2825   85.6497   16.9061 C.3     1  UNL1        0.0000
     22 C          62.4592   84.5691   16.2700 C.3     1  UNL1        0.0001
     23 C          62.5816   84.3005   14.7993 C.3     1  UNL1        0.0025
     24 C          61.5184   85.2569    7.7731 C.3     1  UNL1        0.0938
     25 C          62.7057   84.8557    6.9490 C.3     1  UNL1        0.0215
     26 C          61.2789   83.7929    5.0557 C.3     1  UNL1        0.0001
     27 C          62.5278   84.4920    5.5047 C.3     1  UNL1        0.0018
     28 C          58.4341   89.2875    6.6587 C.3     1  UNL1        0.0992
     29 C          59.0415   90.2894    5.7221 C.ar    1  UNL1       -0.0059
     30 C          60.5153   90.2596    5.4447 C.ar    1  UNL1        0.0002
     31 C          61.1226   91.2616    4.5082 C.ar    1  UNL1        0.0372
     32 C          60.2561   92.2935    3.8490 C.ar    1  UNL1        0.1453
     33 C          58.7823   92.3233    4.1264 C.ar    1  UNL1        0.0372
     34 C          58.1750   91.3213    5.0629 C.ar    1  UNL1        0.0002
     35 O          60.8635   93.2954    2.9125 O.3     1  UNL1       -0.4535
     36 C          60.2707   93.5045    1.5505 C.ar    1  UNL1        0.1453
     37 C          59.7387   94.8524    1.1630 C.ar    1  UNL1        0.0375
     38 C          59.1459   95.0615   -0.1989 C.ar    1  UNL1        0.0043
     39 C          59.0851   93.9228   -1.1733 C.ar    1  UNL1        0.0142
     40 C          59.6171   92.5748   -0.7858 C.ar    1  UNL1        0.0043
     41 C          60.2099   92.3657    0.5761 C.ar    1  UNL1        0.0375
     42 C          58.4923   94.1319   -2.5353 C.2     1  UNL1        0.0729
     43 O          57.1991   94.8773   -2.6840 O.co2   1  UNL1       -0.5446
     44 O          59.1926   93.5956   -3.7485 O.co2   1  UNL1       -0.5446
@<TRIPOS>UNITY_ATOM_ATTR
43 1
charge -1
@<TRIPOS>BOND
     1    26    27    1
     2    27    25    1
     3    25    24    1
     4    24     1    1
     5     1     2   am
     6     2     3    2
     7     2     4    1
     8     4    15    1
     9    15    16    1
    10    15    18    1
    11    18    19    1
    12    19    20    1
    13    20    21    1
    14    21    22    1
    15    22    23    1
    16     4     5    1
    17     5     6   am
    18     6     7    2
    19     6     8    1
    20     8     9    1
    21     9    10    1
    22    10    11    1
    23    11    28    1
    24    28    29    1
    25    29    30   ar
    26    30    31   ar
    27    31    32   ar
    28    32    35    1
    29    35    36    1
    30    36    37   ar
    31    37    38   ar
    32    38    39   ar
    33    39    42    1
    34    42    43   ar
    35    42    44   ar
    36    39    40   ar
    37    40    41   ar
    38    32    33   ar
    39    33    34   ar
    40    11    12    1
    41    12    13    1
    42     8     1    1
    43    34    29   ar
    44    23    18    1
    45    13     8    1
    46    41    36   ar
    47    16    17    1
    48     5    14    1
@<TRIPOS>MOLECULE
*****
 44 48 0 0 0
SMALL
GASTEIGER

@<TRIPOS>ATOM
      1 N          61.3609   86.4237    9.7570 N.am    1  UNL1       -0.2733
      2 C          62.1756   85.7927   10.8472 C.2     1  UNL1        0.2462
      3 O          62.5371   84.3391   10.7675 O.2     1  UNL1       -0.2730
      4 C          62.6286   86.6152   12.0168 C.3     1  UNL1        0.1759
      5 N          62.2670   88.0688   12.0964 N.am    1  UNL1       -0.2951
      6 C          61.4525   88.6998   11.0064 C.2     1  UNL1        0.2390
      7 O          61.0909   90.1534   11.0860 O.2     1  UNL1       -0.2734
      8 C          60.9994   87.8773    9.8367 C.3     1  UNL1        0.1314
      9 C          60.5464   87.0547    8.6670 C.3     1  UNL1        0.0445
     10 C          59.7318   87.6858    7.5770 C.3     1  UNL1        0.0745
     11 N          59.3703   89.1394    7.6566 N.3     1  UNL1       -0.2688
     12 C          59.8233   89.9619    8.8263 C.3     1  UNL1        0.0745
     13 C          60.6379   89.3309    9.9163 C.3     1  UNL1        0.0445
     14 H          62.5644   88.6087   12.8641 H       1  UNL1        0.1499
     15 C          63.4432   85.9842   13.1069 C.3     1  UNL1        0.1372
     16 O          64.2952   86.8393   13.9973 O.3     1  UNL1       -0.3823
     17 H          64.2053   87.7689   13.7352 H       1  UNL1        0.2104
     18 C          63.4058   84.4980   13.3066 C.3     1  UNL1        0.0291
     19 C          62.3314   83.8818   14.1528 C.3     1  UNL1        0.0025
     20 C          62.2940   82.3956   14.3525 C.3     1  UNL1        0.0001
     21 C          63.3310   81.5256   13.7060 C.3     1  UNL1        0.0000
     22 C          64.4053   82.1419   12.8598 C.3     1  UNL1        0.0001
     23 C          64.4427   83.6281   12.6601 C.3     1  UNL1        0.0025
     24 C          60.9079   85.6012    8.5874 C.3     1  UNL1        0.0938
     25 C          61.8881   85.2086    7.5220 C.3     1  UNL1        0.0215
     26 C          62.3801   84.1842    5.1856 C.3     1  UNL1        0.0001
     27 C          61.4076   84.5276    6.2749 C.3     1  UNL1        0.0018
     28 C          58.5557   89.7704    6.5665 C.3     1  UNL1        0.0992
     29 C          59.2198   90.6437    5.5437 C.ar    1  UNL1       -0.0059
     30 C          60.6931   90.5165    5.2918 C.ar    1  UNL1        0.0002
     31 C          61.3572   91.3898    4.2689 C.ar    1  UNL1        0.0372
     32 C          60.5482   92.3903    3.4979 C.ar    1  UNL1        0.1453
     33 C          59.0750   92.5176    3.7498 C.ar    1  UNL1        0.0372
     34 C          58.4108   91.6443    4.7727 C.ar    1  UNL1        0.0002
     35 O          61.2123   93.2636    2.4751 O.3     1  UNL1       -0.4535
     36 C          60.5405   93.5213    1.1590 C.ar    1  UNL1        0.1453
     37 C          60.5426   92.4631    0.0959 C.ar    1  UNL1        0.0375
     38 C          59.8708   92.7208   -1.2202 C.ar    1  UNL1        0.0043
     39 C          59.1968   94.0367   -1.4733 C.ar    1  UNL1        0.0142
     40 C          59.1947   95.0950   -0.4102 C.ar    1  UNL1        0.0043
     41 C          59.8665   94.8373    0.9059 C.ar    1  UNL1        0.0375
     42 C          58.5250   94.2944   -2.7894 C.2     1  UNL1        0.0729
     43 O          58.1924   95.6984   -3.1995 O.co2   1  UNL1       -0.5446
     44 O          58.1858   93.1481   -3.6955 O.co2   1  UNL1       -0.5446
@<TRIPOS>UNITY_ATOM_ATTR
43 1
charge -1
@<TRIPOS>BOND
     1    26    27    1
     2    27    25    1
     3    25    24    1
     4    24     1    1
     5     1     2   am
     6     2     3    2
     7     2     4    1
     8     4    15    1
     9    15    16    1
    10    15    18    1
    11    18    19    1
    12    19    20    1
    13    20    21    1
    14    21    22    1
    15    22    23    1
    16     4     5    1
    17     5     6   am
    18     6     7    2
    19     6     8    1
    20     8     9    1
    21     9    10    1
    22    10    11    1
    23    11    28    1
    24    28    29    1
    25    29    30   ar
    26    30    31   ar
    27    31    32   ar
    28    32    35    1
    29    35    36    1
    30    36    37   ar
    31    37    38   ar
    32    38    39   ar
    33    39    42    1
    34    42    43   ar
    35    42    44   ar
    36    39    40   ar
    37    40    41   ar
    38    32    33   ar
    39    33    34   ar
    40    11    12    1
    41    12    13    1
    42     8     1    1
    43    34    29   ar
    44    23    18    1
    45    13     8    1
    46    41    36   ar
    47    16    17    1
    48     5    14    1
@<TRIPOS>MOLECULE
*****
 44 48 0 0 0
SMALL
GASTEIGER

@<TRIPOS>ATOM
      1 N          61.2918   93.5162    1.8854 N.am    1  UNL1       -0.2733
      2 C          62.2390   94.0967    0.8774 C.2     1  UNL1        0.2462
      3 O          61.7763   95.1829   -0.0479 O.2     1  UNL1       -0.2730
      4 C          63.6487   93.5909    0.7946 C.3     1  UNL1        0.1759
      5 N          64.1113   92.5047    1.7198 N.am    1  UNL1       -0.2951
      6 C          63.1643   91.9242    2.7278 C.2     1  UNL1        0.2390
      7 O          63.6269   90.8380    3.6530 O.2     1  UNL1       -0.2734
      8 C          61.7545   92.4299    2.8106 C.3     1  UNL1        0.1314
      9 C          60.3448   92.9357    2.8934 C.3     1  UNL1        0.0445
     10 C          59.3977   92.3552    3.9013 C.3     1  UNL1        0.0745
     11 N          59.8604   91.2689    4.8266 N.3     1  UNL1       -0.2688
     12 C          61.2701   90.7632    4.7438 C.3     1  UNL1        0.0745
     13 C          62.2171   91.3437    3.7358 C.3     1  UNL1        0.0445
     14 H          65.0366   92.1728    1.6655 H       1  UNL1        0.1499
     15 C          64.5958   94.1714   -0.2134 C.3     1  UNL1        0.1372
     16 O          65.9263   94.7053    0.2281 O.3     1  UNL1       -0.3823
     17 H          66.0146   94.5996    1.1883 H       1  UNL1        0.2104
     18 C          64.2125   94.2181   -1.6628 C.3     1  UNL1        0.0291
     19 C          63.4510   93.0795   -2.2742 C.3     1  UNL1        0.0025
     20 C          63.0677   93.1261   -3.7236 C.3     1  UNL1        0.0001
     21 C          63.4459   94.3113   -4.5617 C.3     1  UNL1        0.0000
     22 C          64.2074   95.4499   -3.9503 C.3     1  UNL1        0.0001
     23 C          64.5907   95.4032   -2.5008 C.3     1  UNL1        0.0025
     24 C          59.8821   94.0219    1.9681 C.3     1  UNL1        0.0938
     25 C          59.0977   94.2653    0.7129 C.3     1  UNL1        0.0215
     26 C          59.4876   92.7575   -1.3666 C.3     1  UNL1        0.0001
     27 C          58.6848   93.1096   -0.1494 C.3     1  UNL1        0.0018
     28 C          58.9132   90.6884    5.8346 C.3     1  UNL1        0.0992
     29 C          59.3766   89.6041    6.7616 C.ar    1  UNL1       -0.0059
     30 C          60.1078   89.9573    8.0228 C.ar    1  UNL1        0.0002
     31 C          60.5712   88.8728    8.9498 C.ar    1  UNL1        0.0372
     32 C          60.3034   87.4353    8.6157 C.ar    1  UNL1        0.1453
     33 C          59.5721   87.0821    7.3545 C.ar    1  UNL1        0.0372
     34 C          59.1088   88.1665    6.4275 C.ar    1  UNL1        0.0002
     35 O          60.7667   86.3509    9.5427 O.3     1  UNL1       -0.4535
     36 C          61.6624   86.6845   10.6988 C.ar    1  UNL1        0.1453
     37 C          62.0202   88.1133   10.9824 C.ar    1  UNL1        0.0375
     38 C          62.9158   88.4469   12.1385 C.ar    1  UNL1        0.0043
     39 C          63.4536   87.3517   13.0110 C.ar    1  UNL1        0.0142
     40 C          63.0958   85.9229   12.7274 C.ar    1  UNL1        0.0043
     41 C          62.2002   85.5893   11.5713 C.ar    1  UNL1        0.0375
     42 C          64.3492   87.6853   14.1671 C.2     1  UNL1        0.0729
     43 O          64.5971   89.1184   14.5347 O.co2   1  UNL1       -0.5446
     44 O          64.9970   86.5860   14.9556 O.co2   1  UNL1       -0.5446
@<TRIPOS>UNITY_ATOM_ATTR
43 1
charge -1
@<TRIPOS>BOND
     1    26    27    1
     2    27    25    1
     3    25    24    1
     4    24     1    1
     5     1     2   am
     6     2     3    2
     7     2     4    1
     8     4    15    1
     9    15    16    1
    10    15    18    1
    11    18    19    1
    12    19    20    1
    13    20    21    1
    14    21    22    1
    15    22    23    1
    16     4     5    1
    17     5     6   am
    18     6     7    2
    19     6     8    1
    20     8     9    1
    21     9    10    1
    22    10    11    1
    23    11    28    1
    24    28    29    1
    25    29    30   ar
    26    30    31   ar
    27    31    32   ar
    28    32    35    1
    29    35    36    1
    30    36    37   ar
    31    37    38   ar
    32    38    39   ar
    33    39    42    1
    34    42    43   ar
    35    42    44   ar
    36    39    40   ar
    37    40    41   ar
    38    32    33   ar
    39    33    34   ar
    40    11    12    1
    41    12    13    1
    42     8     1    1
    43    34    29   ar
    44    23    18    1
    45    13     8    1
    46    41    36   ar
    47    16    17    1
    48     5    14    1
@<TRIPOS>MOLECULE
*****
 44 48 0 0 0
SMALL
GASTEIGER

@<TRIPOS>ATOM
      1 N          61.8755   95.1077   -1.0129 N.am    1  UNL1       -0.2733
      2 C          62.2403   95.1900   -2.4656 C.2     1  UNL1        0.2462
      3 O          63.3161   96.1330   -2.9165 O.2     1  UNL1       -0.2730
      4 C          61.5292   94.3293   -3.4673 C.3     1  UNL1        0.1759
      5 N          60.4533   93.3863   -3.0165 N.am    1  UNL1       -0.2951
      6 C          60.0886   93.3040   -1.5639 C.2     1  UNL1        0.2390
      7 O          59.0127   92.3609   -1.1130 O.2     1  UNL1       -0.2734
      8 C          60.7996   94.1647   -0.5620 C.3     1  UNL1        0.1314
      9 C          61.5107   95.0254    0.4397 C.3     1  UNL1        0.0445
     10 C          61.1459   94.9430    1.8923 C.3     1  UNL1        0.0745
     11 N          60.0701   94.0000    2.3432 N.3     1  UNL1       -0.2688
     12 C          59.3590   93.1393    1.3414 C.3     1  UNL1        0.0745
     13 C          59.7238   93.2217   -0.1112 C.3     1  UNL1        0.0445
     14 H          59.9866   92.8214   -3.6740 H       1  UNL1        0.1499
     15 C          61.8940   94.4116   -4.9200 C.3     1  UNL1        0.1372
     16 O          61.0948   95.2799   -5.8459 O.3     1  UNL1       -0.3823
     17 H          60.3844   95.7148   -5.3488 H       1  UNL1        0.2104
     18 C          63.0578   93.6256   -5.4468 C.3     1  UNL1        0.0291
     19 C          63.2491   93.4689   -6.9263 C.3     1  UNL1        0.0025
     20 C          64.4130   92.6829   -7.4530 C.3     1  UNL1        0.0001
     21 C          65.3857   92.0535   -6.5002 C.3     1  UNL1        0.0000
     22 C          65.1945   92.2102   -5.0207 C.3     1  UNL1        0.0001
     23 C          64.0305   92.9962   -4.4940 C.3     1  UNL1        0.0025
     24 C          62.5866   95.9684   -0.0112 C.3     1  UNL1        0.0938
     25 C          64.0699   95.8388    0.1703 C.3     1  UNL1        0.0215
     26 C          64.8508   93.5049    1.0027 C.3     1  UNL1        0.0001
     27 C          64.7457   94.5255   -0.0915 C.3     1  UNL1        0.0018
     28 C          59.7053   93.9177    3.7959 C.3     1  UNL1        0.0992
     29 C          59.5161   92.5798    4.4470 C.ar    1  UNL1       -0.0059
     30 C          58.1538   92.1578    4.9118 C.ar    1  UNL1        0.0002
     31 C          57.9646   90.8198    5.5630 C.ar    1  UNL1        0.0372
     32 C          59.1377   89.9038    5.7493 C.ar    1  UNL1        0.1453
     33 C          60.5000   90.3257    5.2845 C.ar    1  UNL1        0.0372
     34 C          60.6892   91.6637    4.6334 C.ar    1  UNL1        0.0002
     35 O          58.9484   88.5658    6.4004 O.3     1  UNL1       -0.4535
     36 C          59.7226   88.2173    7.6371 C.ar    1  UNL1        0.1453
     37 C          60.0765   86.7879    7.9224 C.ar    1  UNL1        0.0375
     38 C          60.8506   86.4394    9.1590 C.ar    1  UNL1        0.0043
     39 C          61.2709   87.5203   10.1103 C.ar    1  UNL1        0.0142
     40 C          60.9169   88.9498    9.8250 C.ar    1  UNL1        0.0043
     41 C          60.1428   89.2983    8.5884 C.ar    1  UNL1        0.0375
     42 C          62.0450   87.1718   11.3469 C.2     1  UNL1        0.0729
     43 O          62.9228   88.2000   11.9969 O.co2   1  UNL1       -0.5446
     44 O          61.9414   85.7952   11.9336 O.co2   1  UNL1       -0.5446
@<TRIPOS>UNITY_ATOM_ATTR
43 1
charge -1
@<TRIPOS>BOND
     1    26    27    1
     2    27    25    1
     3    25    24    1
     4    24     1    1
     5     1     2   am
     6     2     3    2
     7     2     4    1
     8     4    15    1
     9    15    16    1
    10    15    18    1
    11    18    19    1
    12    19    20    1
    13    20    21    1
    14    21    22    1
    15    22    23    1
    16     4     5    1
    17     5     6   am
    18     6     7    2
    19     6     8    1
    20     8     9    1
    21     9    10    1
    22    10    11    1
    23    11    28    1
    24    28    29    1
    25    29    30   ar
    26    30    31   ar
    27    31    32   ar
    28    32    35    1
    29    35    36    1
    30    36    37   ar
    31    37    38   ar
    32    38    39   ar
    33    39    42    1
    34    42    43   ar
    35    42    44   ar
    36    39    40   ar
    37    40    41   ar
    38    32    33   ar
    39    33    34   ar
    40    11    12    1
    41    12    13    1
    42     8     1    1
    43    34    29   ar
    44    23    18    1
    45    13     8    1
    46    41    36   ar
    47    16    17    1
    48     5    14    1
@<TRIPOS>MOLECULE
*****
 44 48 0 0 0
SMALL
GASTEIGER

@<TRIPOS>ATOM
      1 N          61.2214   93.4584    1.9354 N.am    1  UNL1       -0.2733
      2 C          62.1520   94.1598    0.9908 C.2     1  UNL1        0.2462
      3 O          61.6310   95.2370    0.0864 O.2     1  UNL1       -0.2730
      4 C          63.6036   93.7839    0.9508 C.3     1  UNL1        0.1759
      5 N          64.1246   92.7066    1.8553 N.am    1  UNL1       -0.2951
      6 C          63.1941   92.0053    2.7998 C.2     1  UNL1        0.2390
      7 O          63.7151   90.9280    3.7043 O.2     1  UNL1       -0.2734
      8 C          61.7424   92.3812    2.8399 C.3     1  UNL1        0.1314
      9 C          60.2909   92.7571    2.8799 C.3     1  UNL1        0.0445
     10 C          59.3604   92.0557    3.8245 C.3     1  UNL1        0.0745
     11 N          59.8814   90.9785    4.7289 N.3     1  UNL1       -0.2688
     12 C          61.3330   90.6026    4.6889 C.3     1  UNL1        0.0745
     13 C          62.2635   91.3039    3.7444 C.3     1  UNL1        0.0445
     14 H          65.0773   92.4599    1.8290 H       1  UNL1        0.1499
     15 C          64.5342   94.4852    0.0062 C.3     1  UNL1        0.1372
     16 O          65.6990   95.2644    0.5413 O.3     1  UNL1       -0.3823
     17 H          65.7049   95.2128    1.5099 H       1  UNL1        0.2104
     18 C          64.3000   94.4075   -1.4733 C.3     1  UNL1        0.0291
     19 C          64.7222   95.5412   -2.3601 C.3     1  UNL1        0.0025
     20 C          64.4880   95.4634   -3.8396 C.3     1  UNL1        0.0001
     21 C          63.8316   94.2519   -4.4324 C.3     1  UNL1        0.0000
     22 C          63.4095   93.1181   -3.5456 C.3     1  UNL1        0.0001
     23 C          63.6437   93.1959   -2.0660 C.3     1  UNL1        0.0025
     24 C          59.7699   93.8343    1.9755 C.3     1  UNL1        0.0938
     25 C          58.9666   93.8602    0.7089 C.3     1  UNL1        0.0215
     26 C          59.6888   92.9353   -1.6090 C.3     1  UNL1        0.0001
     27 C          59.0620   92.7218   -0.2631 C.3     1  UNL1        0.0018
     28 C          58.9508   90.2771    5.6735 C.3     1  UNL1        0.0992
     29 C          59.4831   89.6679    6.9366 C.ar    1  UNL1       -0.0059
     30 C          60.2298   90.5170    7.9222 C.ar    1  UNL1        0.0002
     31 C          60.7621   89.9078    9.1853 C.ar    1  UNL1        0.0372
     32 C          60.5476   88.4494    9.4629 C.ar    1  UNL1        0.1453
     33 C          59.8009   87.6002    8.4774 C.ar    1  UNL1        0.0372
     34 C          59.2686   88.2094    7.2142 C.ar    1  UNL1        0.0002
     35 O          61.0799   87.8402   10.7260 O.3     1  UNL1       -0.4535
     36 C          61.7697   86.5089   10.6839 C.ar    1  UNL1        0.1453
     37 C          62.3789   86.0200    9.4033 C.ar    1  UNL1        0.0375
     38 C          63.0687   84.6887    9.3612 C.ar    1  UNL1        0.0043
     39 C          63.1494   83.8463   10.5996 C.ar    1  UNL1        0.0142
     40 C          62.5402   84.3351   11.8803 C.ar    1  UNL1        0.0043
     41 C          61.8504   85.6664   11.9224 C.ar    1  UNL1        0.0375
     42 C          63.8392   82.5150   10.5575 C.2     1  UNL1        0.0729
     43 O          63.3772   81.4022   11.4511 O.co2   1  UNL1       -0.5446
     44 O          64.9910   82.2964    9.6218 O.co2   1  UNL1       -0.5446
@<TRIPOS>UNITY_ATOM_ATTR
43 1
charge -1
@<TRIPOS>BOND
     1    26    27    1
     2    27    25    1
     3    25    24    1
     4    24     1    1
     5     1     2   am
     6     2     3    2
     7     2     4    1
     8     4    15    1
     9    15    16    1
    10    15    18    1
    11    18    19    1
    12    19    20    1
    13    20    21    1
    14    21    22    1
    15    22    23    1
    16     4     5    1
    17     5     6   am
    18     6     7    2
    19     6     8    1
    20     8     9    1
    21     9    10    1
    22    10    11    1
    23    11    28    1
    24    28    29    1
    25    29    30   ar
    26    30    31   ar
    27    31    32   ar
    28    32    35    1
    29    35    36    1
    30    36    37   ar
    31    37    38   ar
    32    38    39   ar
    33    39    42    1
    34    42    43   ar
    35    42    44   ar
    36    39    40   ar
    37    40    41   ar
    38    32    33   ar
    39    33    34   ar
    40    11    12    1
    41    12    13    1
    42     8     1    1
    43    34    29   ar
    44    23    18    1
    45    13     8    1
    46    41    36   ar
    47    16    17    1
    48     5    14    1
