@<TRIPOS>MOLECULE
*****
 34 38 0 0 0
SMALL
GASTEIGER

@<TRIPOS>ATOM
      1 C          71.6897   75.7581   13.1802 C.ar    1  UNL1        0.1317
      2 C          70.5219   76.6726   12.9567 C.ar    1  UNL1        0.0346
      3 C          70.6308   77.8021   11.9757 C.ar    1  UNL1        0.0121
      4 C          71.9075   78.0172   11.2183 C.ar    1  UNL1        0.1076
      5 C          73.0753   77.1027   11.4418 C.ar    1  UNL1        0.1080
      6 N          72.9664   75.9732   12.4228 N.ar    1  UNL1       -0.2289
      7 C          71.1452   70.1105   18.0851 C.3     1  UNL1        0.0353
      8 C          72.0468   69.9842   16.8930 C.3     1  UNL1        0.0053
      9 C          72.1557   71.1137   15.9120 C.3     1  UNL1        0.0274
     10 C          71.3630   72.3695   16.1232 C.3     1  UNL1        0.0961
     11 C          70.5704   73.6253   16.3343 C.3     1  UNL1        0.0487
     12 C          70.6793   74.7549   15.3533 C.3     1  UNL1        0.0946
     13 N          71.5808   74.6286   14.1612 N.pl3   1  UNL1       -0.2931
     14 C          72.3735   73.3728   13.9501 C.3     1  UNL1        0.0946
     15 C          72.2646   72.2433   14.9310 C.3     1  UNL1        0.0487
     16 O          70.4615   72.4958   17.3153 O.3     1  UNL1       -0.3584
     17 C          70.3526   71.3663   18.2963 C.3     1  UNL1        0.1422
     18 C          71.0363   68.9810   19.0661 C.3     1  UNL1        0.0442
     19 O          69.2196   67.1803   19.5210 O.co2   1  UNL1       -0.5492
     20 C          70.3380   67.7125   18.6748 C.2     1  UNL1        0.0504
     21 O          70.7580   66.9761   17.4373 O.co2   1  UNL1       -0.5492
     22 C          72.0164   79.1467   10.2373 C.2     1  UNL1        0.3767
     23 N          72.2409   79.0131    8.7602 N.2     1  UNL1       -0.0308
     24 C          72.2832   80.3920    8.1712 C.2     1  UNL1        0.2320
     25 C          72.4767   80.8773    6.7652 C.2     1  UNL1        0.0537
     26 C          72.4718   82.3483    6.4721 C.2     1  UNL1        0.0714
     27 C          72.2734   83.3341    7.5852 C.2     1  UNL1       -0.0133
     28 C          72.0799   82.8488    8.9912 C.3     1  UNL1        0.1037
     29 C          72.0848   81.3778    9.2842 C.2     1  UNL1        0.2178
     30 N          71.9199   80.6081   10.5611 N.2     1  UNL1       -0.0347
     31 C          72.6653   82.8337    5.0660 C.3     1  UNL1        0.4184
     32 F          72.8588   83.3191    3.6600 F       1  UNL1       -0.1659
     33 F          71.6979   83.9518    5.3189 F       1  UNL1       -0.1659
     34 F          73.6327   81.7156    4.8132 F       1  UNL1       -0.1659
@<TRIPOS>UNITY_ATOM_ATTR
19 1
charge -1
@<TRIPOS>BOND
     1    19    20   ar
     2    20    21   ar
     3    20    18    1
     4    18     7    1
     5     7     8    1
     6     8     9    1
     7     9    10    1
     8    10    11    1
     9    11    12    1
    10    12    13    1
    11    13     1    1
    12     1     2   ar
    13     2     3   ar
    14     3     4   ar
    15     4    22    1
    16    22    23    2
    17    23    24    1
    18    24    25    2
    19    25    26    1
    20    26    31    1
    21    31    32    1
    22    31    33    1
    23    31    34    1
    24    26    27    2
    25    27    28    1
    26    28    29    1
    27    29    30    2
    28     4     5   ar
    29     5     6   ar
    30    13    14    1
    31    14    15    1
    32    10    16    1
    33    16    17    1
    34    17     7    1
    35    15    10    1
    36     6     1   ar
    37    30    22    1
    38    29    24    1
@<TRIPOS>MOLECULE
*****
 34 38 0 0 0
SMALL
GASTEIGER

@<TRIPOS>ATOM
      1 C          59.5747   92.3634    3.0246 C.ar    1  UNL1        0.1317
      2 C          60.9808   91.9725    3.3710 C.ar    1  UNL1        0.0346
      3 C          61.2601   91.2240    4.6405 C.ar    1  UNL1        0.0121
      4 C          60.1333   90.8664    5.5638 C.ar    1  UNL1        0.1076
      5 C          58.7272   91.2573    5.2174 C.ar    1  UNL1        0.1080
      6 N          58.4479   92.0058    3.9479 N.ar    1  UNL1       -0.2289
      7 C          58.1781   96.1057   -3.3231 C.3     1  UNL1        0.0353
      8 C          57.6293   94.7230   -3.1314 C.3     1  UNL1        0.0053
      9 C          57.9086   93.9746   -1.8619 C.3     1  UNL1        0.0274
     10 C          58.7368   94.6088   -0.7840 C.3     1  UNL1        0.0961
     11 C          59.5650   95.2430    0.2938 C.3     1  UNL1        0.0487
     12 C          59.8443   94.4945    1.5634 C.3     1  UNL1        0.0946
     13 N          59.2954   93.1118    1.7551 N.pl3   1  UNL1       -0.2931
     14 C          58.4672   92.4776    0.6772 C.3     1  UNL1        0.0946
     15 C          58.1879   93.2261   -0.5923 C.3     1  UNL1        0.0487
     16 O          59.2857   95.9915   -0.9757 O.3     1  UNL1       -0.3584
     17 C          59.0063   96.7400   -2.2453 C.3     1  UNL1        0.1422
     18 C          57.8988   96.8542   -4.5927 C.3     1  UNL1        0.0442
     19 O          55.4792   96.3808   -5.4122 O.co2   1  UNL1       -0.5492
     20 C          56.9622   96.2777   -5.6127 C.2     1  UNL1        0.0504
     21 O          57.5086   95.5980   -6.8332 O.co2   1  UNL1       -0.5492
     22 C          60.4126   90.1180    6.8333 C.2     1  UNL1        0.3767
     23 N          61.5834   90.3351    7.7455 N.2     1  UNL1       -0.0308
     24 C          61.4646   89.3722    8.8895 C.2     1  UNL1        0.2320
     25 C          62.3286   89.1302   10.0915 C.2     1  UNL1        0.0537
     26 C          61.9484   88.0759   11.0884 C.2     1  UNL1        0.0714
     27 C          60.7041   87.2637   10.8833 C.2     1  UNL1       -0.0133
     28 C          59.8400   87.5058    9.6813 C.3     1  UNL1        0.1037
     29 C          60.2203   88.5601    8.6845 C.2     1  UNL1        0.2178
     30 N          59.5702   89.0209    7.4136 N.2     1  UNL1       -0.0347
     31 C          62.8124   87.8338   12.2905 C.3     1  UNL1        0.4184
     32 F          63.6764   87.5916   13.4924 F       1  UNL1       -0.1659
     33 F          62.7818   86.3595   12.0154 F       1  UNL1       -0.1659
     34 F          62.8430   89.3080   12.5655 F       1  UNL1       -0.1659
@<TRIPOS>UNITY_ATOM_ATTR
19 1
charge -1
@<TRIPOS>BOND
     1    19    20   ar
     2    20    21   ar
     3    20    18    1
     4    18     7    1
     5     7     8    1
     6     8     9    1
     7     9    10    1
     8    10    11    1
     9    11    12    1
    10    12    13    1
    11    13     1    1
    12     1     2   ar
    13     2     3   ar
    14     3     4   ar
    15     4    22    1
    16    22    23    2
    17    23    24    1
    18    24    25    2
    19    25    26    1
    20    26    31    1
    21    31    32    1
    22    31    33    1
    23    31    34    1
    24    26    27    2
    25    27    28    1
    26    28    29    1
    27    29    30    2
    28     4     5   ar
    29     5     6   ar
    30    13    14    1
    31    14    15    1
    32    10    16    1
    33    16    17    1
    34    17     7    1
    35    15    10    1
    36     6     1   ar
    37    30    22    1
    38    29    24    1
@<TRIPOS>MOLECULE
*****
 34 38 0 0 0
SMALL
GASTEIGER

@<TRIPOS>ATOM
      1 C          59.5814   92.2614    3.1182 C.ar    1  UNL1        0.1317
      2 C          60.9471   91.7791    3.5083 C.ar    1  UNL1        0.0346
      3 C          61.1359   91.0133    4.7843 C.ar    1  UNL1        0.0121
      4 C          59.9590   90.7298    5.6700 C.ar    1  UNL1        0.1076
      5 C          58.5933   91.2121    5.2798 C.ar    1  UNL1        0.1080
      6 N          58.4045   91.9779    4.0039 N.ar    1  UNL1       -0.2289
      7 C          58.6373   96.0902   -3.2614 C.3     1  UNL1        0.0353
      8 C          59.3424   96.7280   -2.1012 C.3     1  UNL1        0.0053
      9 C          59.5312   95.9622   -0.8253 C.3     1  UNL1        0.0274
     10 C          59.0150   94.5587   -0.7096 C.3     1  UNL1        0.0961
     11 C          58.4987   93.1551   -0.5938 C.3     1  UNL1        0.0487
     12 C          58.6875   92.3893    0.6821 C.3     1  UNL1        0.0946
     13 N          59.3926   93.0271    1.8422 N.pl3   1  UNL1       -0.2931
     14 C          59.9088   94.4307    1.7265 C.3     1  UNL1        0.0946
     15 C          59.7200   95.1965    0.4506 C.3     1  UNL1        0.0487
     16 O          58.3099   93.9209   -1.8697 O.3     1  UNL1       -0.3584
     17 C          58.1211   94.6866   -3.1457 C.3     1  UNL1        0.1422
     18 C          58.4485   96.8560   -4.5373 C.3     1  UNL1        0.0442
     19 O          55.8889   96.8142   -4.9806 O.co2   1  UNL1       -0.5492
     20 C          57.2911   96.5399   -5.4375 C.2     1  UNL1        0.0504
     21 O          57.5357   95.9494   -6.7945 O.co2   1  UNL1       -0.5492
     22 C          60.1478   89.9641    6.9459 C.2     1  UNL1        0.3767
     23 N          60.8249   88.6326    7.0832 N.2     1  UNL1       -0.0308
     24 C          60.7882   88.2410    8.5307 C.2     1  UNL1        0.2320
     25 C          61.3016   87.0331    9.2569 C.2     1  UNL1        0.0537
     26 C          61.1153   86.9147   10.7406 C.2     1  UNL1        0.0714
     27 C          60.4155   88.0040   11.4979 C.2     1  UNL1       -0.0133
     28 C          59.9021   89.2119   10.7717 C.3     1  UNL1        0.1037
     29 C          60.0885   89.3303    9.2880 C.2     1  UNL1        0.2178
     30 N          59.6927   90.3953    8.3086 N.2     1  UNL1       -0.0347
     31 C          61.6286   85.7068   11.4669 C.3     1  UNL1        0.4184
     32 F          62.1420   84.4989   12.1932 F       1  UNL1       -0.1659
     33 F          61.3512   84.8623   10.2586 F       1  UNL1       -0.1659
     34 F          61.9061   86.5512   12.6752 F       1  UNL1       -0.1659
@<TRIPOS>UNITY_ATOM_ATTR
19 1
charge -1
@<TRIPOS>BOND
     1    19    20   ar
     2    20    21   ar
     3    20    18    1
     4    18     7    1
     5     7     8    1
     6     8     9    1
     7     9    10    1
     8    10    11    1
     9    11    12    1
    10    12    13    1
    11    13     1    1
    12     1     2   ar
    13     2     3   ar
    14     3     4   ar
    15     4    22    1
    16    22    23    2
    17    23    24    1
    18    24    25    2
    19    25    26    1
    20    26    31    1
    21    31    32    1
    22    31    33    1
    23    31    34    1
    24    26    27    2
    25    27    28    1
    26    28    29    1
    27    29    30    2
    28     4     5   ar
    29     5     6   ar
    30    13    14    1
    31    14    15    1
    32    10    16    1
    33    16    17    1
    34    17     7    1
    35    15    10    1
    36     6     1   ar
    37    30    22    1
    38    29    24    1
@<TRIPOS>MOLECULE
*****
 34 38 0 0 0
SMALL
GASTEIGER

@<TRIPOS>ATOM
      1 C          60.2428   90.6103    5.6813 C.ar    1  UNL1        0.1317
      2 C          58.8361   91.0304    5.3737 C.ar    1  UNL1        0.0346
      3 C          58.5594   91.9224    4.1999 C.ar    1  UNL1        0.0121
      4 C          59.6893   92.3943    3.3337 C.ar    1  UNL1        0.1076
      5 C          61.0961   91.9742    3.6413 C.ar    1  UNL1        0.1080
      6 N          61.3728   91.0822    4.8151 N.ar    1  UNL1       -0.2289
      7 C          61.6265   86.1504   11.5503 C.3     1  UNL1        0.0353
      8 C          60.9931   85.5868   10.3129 C.3     1  UNL1        0.0053
      9 C          60.7164   86.4788    9.1391 C.3     1  UNL1        0.0274
     10 C          61.0730   87.9344    9.2027 C.3     1  UNL1        0.0961
     11 C          61.4297   89.3899    9.2663 C.3     1  UNL1        0.0487
     12 C          61.1529   90.2819    8.0925 C.3     1  UNL1        0.0946
     13 N          60.5196   89.7183    6.8551 N.pl3   1  UNL1       -0.2931
     14 C          60.1629   88.2628    6.7915 C.3     1  UNL1        0.0946
     15 C          60.4397   87.3708    7.9653 C.3     1  UNL1        0.0487
     16 O          61.7064   88.4980   10.4401 O.3     1  UNL1       -0.3584
     17 C          61.9831   87.6060   11.6139 C.3     1  UNL1        0.1422
     18 C          61.9032   85.2585   12.7241 C.3     1  UNL1        0.0442
     19 O          64.1872   84.0228   12.6413 O.co2   1  UNL1       -0.5492
     20 C          63.3076   85.0896   13.2231 C.2     1  UNL1        0.0504
     21 O          63.8326   85.9876   14.3039 O.co2   1  UNL1       -0.5492
     22 C          59.4126   93.2862    2.1599 C.2     1  UNL1        0.3767
     23 N          58.6985   92.8912    0.9013 N.2     1  UNL1       -0.0308
     24 C          58.6459   94.0907    0.0022 C.2     1  UNL1        0.2320
     25 C          58.0655   94.2949   -1.3658 C.2     1  UNL1        0.0537
     26 C          58.1666   95.6356   -2.0309 C.2     1  UNL1        0.0714
     27 C          58.8483   96.7719   -1.3280 C.2     1  UNL1       -0.0133
     28 C          59.4287   96.5677    0.0399 C.3     1  UNL1        0.1037
     29 C          59.3276   95.2270    0.7050 C.2     1  UNL1        0.2178
     30 N          59.8014   94.7299    2.0385 N.2     1  UNL1       -0.0347
     31 C          57.5861   95.8399   -3.3989 C.3     1  UNL1        0.4184
     32 F          57.0057   96.0442   -4.7668 F       1  UNL1       -0.1659
     33 F          58.7365   96.7348   -3.7533 F       1  UNL1       -0.1659
     34 F          56.4358   94.9449   -3.0444 F       1  UNL1       -0.1659
@<TRIPOS>UNITY_ATOM_ATTR
19 1
charge -1
@<TRIPOS>BOND
     1    19    20   ar
     2    20    21   ar
     3    20    18    1
     4    18     7    1
     5     7     8    1
     6     8     9    1
     7     9    10    1
     8    10    11    1
     9    11    12    1
    10    12    13    1
    11    13     1    1
    12     1     2   ar
    13     2     3   ar
    14     3     4   ar
    15     4    22    1
    16    22    23    2
    17    23    24    1
    18    24    25    2
    19    25    26    1
    20    26    31    1
    21    31    32    1
    22    31    33    1
    23    31    34    1
    24    26    27    2
    25    27    28    1
    26    28    29    1
    27    29    30    2
    28     4     5   ar
    29     5     6   ar
    30    13    14    1
    31    14    15    1
    32    10    16    1
    33    16    17    1
    34    17     7    1
    35    15    10    1
    36     6     1   ar
    37    30    22    1
    38    29    24    1
@<TRIPOS>MOLECULE
*****
 34 38 0 0 0
SMALL
GASTEIGER

@<TRIPOS>ATOM
      1 C          61.8222   92.6118    1.7916 C.ar    1  UNL1        0.1317
      2 C          62.7507   91.6263    2.4370 C.ar    1  UNL1        0.0346
      3 C          62.3381   90.9191    3.6939 C.ar    1  UNL1        0.0121
      4 C          60.9970   91.1974    4.3053 C.ar    1  UNL1        0.1076
      5 C          60.0685   92.1828    3.6599 C.ar    1  UNL1        0.1080
      6 N          60.4810   92.8901    2.4031 N.ar    1  UNL1       -0.2289
      7 C          63.8851   96.1479   -4.4925 C.3     1  UNL1        0.0353
      8 C          64.8345   96.0614   -3.3344 C.3     1  UNL1        0.0053
      9 C          64.4219   95.3541   -2.0776 C.3     1  UNL1        0.0274
     10 C          63.0599   94.7334   -1.9789 C.3     1  UNL1        0.0961
     11 C          61.6980   94.1127   -1.8801 C.3     1  UNL1        0.0487
     12 C          61.2854   93.4055   -0.6233 C.3     1  UNL1        0.0946
     13 N          62.2348   93.3190    0.5348 N.pl3   1  UNL1       -0.2931
     14 C          63.5967   93.9397    0.4361 C.3     1  UNL1        0.0946
     15 C          64.0093   94.6469   -0.8208 C.3     1  UNL1        0.0487
     16 O          62.1106   94.8200   -3.1369 O.3     1  UNL1       -0.3584
     17 C          62.5232   95.5272   -4.3938 C.3     1  UNL1        0.1422
     18 C          64.2977   96.8551   -5.7493 C.3     1  UNL1        0.0442
     19 O          64.6166   94.8337   -7.3501 O.co2   1  UNL1       -0.5492
     20 C          65.1083   96.1332   -6.7846 C.2     1  UNL1        0.0504
     21 O          66.4105   96.7107   -7.2544 O.co2   1  UNL1       -0.5492
     22 C          60.5844   90.4902    5.5621 C.2     1  UNL1        0.3767
     23 N          60.9352   90.9018    6.9612 N.2     1  UNL1       -0.0308
     24 C          60.3162   89.9132    7.9043 C.2     1  UNL1        0.2320
     25 C          60.3255   89.8121    9.4009 C.2     1  UNL1        0.0537
     26 C          59.6016   88.6883   10.0812 C.2     1  UNL1        0.0714
     27 C          58.8682   87.6656    9.2649 C.2     1  UNL1       -0.0133
     28 C          58.8589   87.7667    7.7684 C.3     1  UNL1        0.1037
     29 C          59.5828   88.8905    7.0881 C.2     1  UNL1        0.2178
     30 N          59.7486   89.2471    5.6406 N.2     1  UNL1       -0.0347
     31 C          59.6109   88.5872   11.5778 C.3     1  UNL1        0.4184
     32 F          59.6202   88.4861   13.0743 F       1  UNL1       -0.1659
     33 F          58.9374   89.9241   11.6723 F       1  UNL1       -0.1659
     34 F          60.2844   87.2503   11.4833 F       1  UNL1       -0.1659
@<TRIPOS>UNITY_ATOM_ATTR
19 1
charge -1
@<TRIPOS>BOND
     1    19    20   ar
     2    20    21   ar
     3    20    18    1
     4    18     7    1
     5     7     8    1
     6     8     9    1
     7     9    10    1
     8    10    11    1
     9    11    12    1
    10    12    13    1
    11    13     1    1
    12     1     2   ar
    13     2     3   ar
    14     3     4   ar
    15     4    22    1
    16    22    23    2
    17    23    24    1
    18    24    25    2
    19    25    26    1
    20    26    31    1
    21    31    32    1
    22    31    33    1
    23    31    34    1
    24    26    27    2
    25    27    28    1
    26    28    29    1
    27    29    30    2
    28     4     5   ar
    29     5     6   ar
    30    13    14    1
    31    14    15    1
    32    10    16    1
    33    16    17    1
    34    17     7    1
    35    15    10    1
    36     6     1   ar
    37    30    22    1
    38    29    24    1
@<TRIPOS>MOLECULE
*****
 34 38 0 0 0
SMALL
GASTEIGER

@<TRIPOS>ATOM
      1 C          60.1874   92.3060    2.4863 C.ar    1  UNL1        0.1317
      2 C          61.4109   91.6778    3.0849 C.ar    1  UNL1        0.0346
      3 C          61.3381   91.0341    4.4377 C.ar    1  UNL1        0.0121
      4 C          60.0417   91.0186    5.1921 C.ar    1  UNL1        0.1076
      5 C          58.8181   91.6468    4.5935 C.ar    1  UNL1        0.1080
      6 N          58.8910   92.2905    3.2406 N.ar    1  UNL1       -0.2289
      7 C          60.5518   95.5247   -4.2781 C.3     1  UNL1        0.0353
      8 C          61.5190   94.4384   -3.9114 C.3     1  UNL1        0.0053
      9 C          61.4461   93.7946   -2.5585 C.3     1  UNL1        0.0274
     10 C          60.4061   94.2372   -1.5724 C.3     1  UNL1        0.0961
     11 C          59.3661   94.6798   -0.5863 C.3     1  UNL1        0.0487
     12 C          59.2932   94.0361    0.7666 C.3     1  UNL1        0.0946
     13 N          60.2603   92.9498    1.1334 N.pl3   1  UNL1       -0.2931
     14 C          61.3003   92.5072    0.1473 C.3     1  UNL1        0.0946
     15 C          61.3732   93.1509   -1.2056 C.3     1  UNL1        0.0487
     16 O          59.4390   95.3235   -1.9391 O.3     1  UNL1       -0.3584
     17 C          59.5118   95.9673   -3.2920 C.3     1  UNL1        0.1422
     18 C          60.6247   96.1684   -5.6310 C.3     1  UNL1        0.0442
     19 O          60.3981   94.2538   -7.3726 O.co2   1  UNL1       -0.5492
     20 C          61.1736   95.4019   -6.7977 C.2     1  UNL1        0.0504
     21 O          62.4980   95.7836   -7.3896 O.co2   1  UNL1       -0.5492
     22 C          59.9688   90.3748    6.5449 C.2     1  UNL1        0.3767
     23 N          59.9262   91.0922    7.8616 N.2     1  UNL1       -0.0308
     24 C          59.8568   90.0615    8.9491 C.2     1  UNL1        0.2320
     25 C          59.7938   90.1812   10.4430 C.2     1  UNL1        0.0537
     26 C          59.7305   88.9465   11.2923 C.2     1  UNL1        0.0714
     27 C          59.7302   87.5920   10.6478 C.2     1  UNL1       -0.0133
     28 C          59.7932   87.4723    9.1539 C.3     1  UNL1        0.1037
     29 C          59.8564   88.7070    8.3046 C.2     1  UNL1        0.2178
     30 N          59.9257   88.9007    6.8188 N.2     1  UNL1       -0.0347
     31 C          59.6676   89.0662   12.7862 C.3     1  UNL1        0.4184
     32 F          59.6046   89.1859   14.2801 F       1  UNL1       -0.1659
     33 F          58.2872   88.4795   12.7750 F       1  UNL1       -0.1659
     34 F          61.0479   89.6530   12.7975 F       1  UNL1       -0.1659
@<TRIPOS>UNITY_ATOM_ATTR
19 1
charge -1
@<TRIPOS>BOND
     1    19    20   ar
     2    20    21   ar
     3    20    18    1
     4    18     7    1
     5     7     8    1
     6     8     9    1
     7     9    10    1
     8    10    11    1
     9    11    12    1
    10    12    13    1
    11    13     1    1
    12     1     2   ar
    13     2     3   ar
    14     3     4   ar
    15     4    22    1
    16    22    23    2
    17    23    24    1
    18    24    25    2
    19    25    26    1
    20    26    31    1
    21    31    32    1
    22    31    33    1
    23    31    34    1
    24    26    27    2
    25    27    28    1
    26    28    29    1
    27    29    30    2
    28     4     5   ar
    29     5     6   ar
    30    13    14    1
    31    14    15    1
    32    10    16    1
    33    16    17    1
    34    17     7    1
    35    15    10    1
    36     6     1   ar
    37    30    22    1
    38    29    24    1
