@<TRIPOS>MOLECULE
*****
 34 37 0 0 0
SMALL
GASTEIGER

@<TRIPOS>ATOM
      1 N          63.0228   90.8698   11.6392 N.am    1  UNL1       -0.2438
      2 C          63.5703   91.4985   10.3923 C.3     1  UNL1        0.1009
      3 C          64.7510   92.4201   10.4732 C.3     1  UNL1        0.0662
      4 C          65.3842   92.7131   11.8011 C.3     1  UNL1        0.1600
      5 O          64.8366   92.0844   13.0481 O.3     1  UNL1       -0.4374
      6 C          63.6559   91.1628   12.9672 C.2     1  UNL1        0.4051
      7 O          63.1083   90.5341   14.2141 O.2     1  UNL1       -0.2262
      8 C          66.2569   93.5437   10.9075 C.ar    1  UNL1        0.0138
      9 C          67.1862   92.8773    9.9367 C.ar    1  UNL1       -0.0010
     10 C          68.0589   93.7079    9.0431 C.ar    1  UNL1       -0.0002
     11 C          68.0023   95.2049    9.1204 C.ar    1  UNL1       -0.0000
     12 C          67.0731   95.8712   10.0912 C.ar    1  UNL1       -0.0002
     13 C          66.2003   95.0406   10.9848 C.ar    1  UNL1       -0.0010
     14 C          60.4660   90.5085   11.3523 C.3     1  UNL1        0.0265
     15 C          61.8421   89.9482   11.5583 C.3     1  UNL1        0.1011
     16 C          62.0375   88.4662   11.6833 C.ar    1  UNL1       -0.0042
     17 C          61.1433   87.5257   10.9311 C.ar    1  UNL1       -0.0026
     18 C          61.3388   86.0438   11.0562 C.ar    1  UNL1        0.0012
     19 C          62.4284   85.5024   11.9335 C.ar    1  UNL1        0.0176
     20 C          63.3225   86.4429   12.6857 C.ar    1  UNL1        0.0012
     21 C          63.1271   87.9248   12.5606 C.ar    1  UNL1       -0.0026
     22 C          62.6238   84.0204   12.0585 C.ar    1  UNL1        0.0815
     23 C          63.0862   83.2224   10.8756 C.ar    1  UNL1        0.0215
     24 C          63.2816   81.7404   11.0006 C.ar    1  UNL1        0.0328
     25 C          63.0146   81.0565   12.3087 C.ar    1  UNL1        0.1592
     26 F          63.2100   79.5745   12.4337 F       1  UNL1       -0.2025
     27 C          62.5522   81.8545   13.4916 C.ar    1  UNL1        0.1283
     28 N          62.3568   83.3364   13.3666 N.ar    1  UNL1       -0.2415
     29 C          66.3204   93.2945   12.8187 C.3     1  UNL1        0.0714
     30 C          66.9303   92.4122   13.8673 C.3     1  UNL1        0.0922
     31 C          66.1382   93.1219   14.9251 C.3     1  UNL1        0.0294
     32 C          67.7224   91.7026   12.8095 C.3     1  UNL1        0.0294
     33 O          67.5401   91.5300   14.9159 O.3     1  UNL1       -0.3866
     34 H          67.1886   91.7725   15.7869 H       1  UNL1        0.2102
@<TRIPOS>BOND
     1    15    14    1
     2    15    16    1
     3    16    17   ar
     4    17    18   ar
     5    18    19   ar
     6    19    22    1
     7    22    23   ar
     8    23    24   ar
     9    24    25   ar
    10    25    26    1
    11    25    27   ar
    12    27    28   ar
    13    19    20   ar
    14    20    21   ar
    15    15     1    1
    16     1     2    1
    17     2     3    1
    18     3     4    1
    19     4    29    1
    20    29    30    1
    21    30    31    1
    22    30    32    1
    23    30    33    1
    24     4     8    1
    25     8     9   ar
    26     9    10   ar
    27    10    11   ar
    28    11    12   ar
    29    12    13   ar
    30     4     5    1
    31     5     6    1
    32     6     7    2
    33    21    16   ar
    34     6     1   am
    35    28    22   ar
    36    13     8   ar
    37    33    34    1
@<TRIPOS>MOLECULE
*****
 34 37 0 0 0
SMALL
GASTEIGER

@<TRIPOS>ATOM
      1 N          63.4283   90.4420   11.9860 N.am    1  UNL1       -0.2438
      2 C          64.0877   90.2687   13.3221 C.3     1  UNL1        0.1009
      3 C          65.2645   91.1213   13.6939 C.3     1  UNL1        0.0662
      4 C          65.7818   92.1473   12.7296 C.3     1  UNL1        0.1600
      5 O          65.1223   92.3206   11.3935 O.3     1  UNL1       -0.4374
      6 C          63.9456   91.4680   11.0217 C.2     1  UNL1        0.4051
      7 O          63.2861   91.6413    9.6857 O.2     1  UNL1       -0.2262
      8 C          66.7360   92.3554   13.8682 C.ar    1  UNL1        0.0138
      9 C          68.2074   92.1508   13.6604 C.ar    1  UNL1       -0.0010
     10 C          69.1616   92.3590   14.7990 C.ar    1  UNL1       -0.0002
     11 C          68.6444   92.7716   16.1451 C.ar    1  UNL1       -0.0000
     12 C          67.1730   92.9761   16.3529 C.ar    1  UNL1       -0.0002
     13 C          66.2188   92.7680   15.2143 C.ar    1  UNL1       -0.0010
     14 C          60.9843   90.2298   11.1305 C.3     1  UNL1        0.0265
     15 C          62.2515   89.5894   11.6142 C.3     1  UNL1        0.1011
     16 C          62.3420   88.0962   11.7262 C.ar    1  UNL1       -0.0042
     17 C          63.2436   87.4742   12.7509 C.ar    1  UNL1       -0.0026
     18 C          63.3340   85.9812   12.8629 C.ar    1  UNL1        0.0012
     19 C          62.5228   85.1101   11.9501 C.ar    1  UNL1        0.0176
     20 C          61.6212   85.7321   10.9254 C.ar    1  UNL1        0.0012
     21 C          61.5308   87.2252   10.8134 C.ar    1  UNL1       -0.0026
     22 C          62.6133   83.6170   12.0621 C.ar    1  UNL1        0.0815
     23 C          63.0615   82.8024   10.8850 C.ar    1  UNL1        0.0215
     24 C          63.1519   81.3093   10.9970 C.ar    1  UNL1        0.0328
     25 C          62.7942   80.6308   12.2861 C.ar    1  UNL1        0.1592
     26 F          62.8847   79.1378   12.3981 F       1  UNL1       -0.2025
     27 C          62.3461   81.4455   13.4632 C.ar    1  UNL1        0.1283
     28 N          62.2556   82.9386   13.3512 N.ar    1  UNL1       -0.2415
     29 C          66.6305   93.2455   12.1608 C.3     1  UNL1        0.0714
     30 C          66.5233   93.5998   10.7072 C.3     1  UNL1        0.0922
     31 C          67.3512   92.4000   10.3536 C.3     1  UNL1        0.0294
     32 C          65.6954   94.7996   11.0607 C.3     1  UNL1        0.0294
     33 O          66.4161   93.9541    9.2536 O.3     1  UNL1       -0.3866
     34 H          66.8978   93.2989    8.7248 H       1  UNL1        0.2102
@<TRIPOS>BOND
     1    15    14    1
     2    15    16    1
     3    16    17   ar
     4    17    18   ar
     5    18    19   ar
     6    19    22    1
     7    22    23   ar
     8    23    24   ar
     9    24    25   ar
    10    25    26    1
    11    25    27   ar
    12    27    28   ar
    13    19    20   ar
    14    20    21   ar
    15    15     1    1
    16     1     2    1
    17     2     3    1
    18     3     4    1
    19     4    29    1
    20    29    30    1
    21    30    31    1
    22    30    32    1
    23    30    33    1
    24     4     8    1
    25     8     9   ar
    26     9    10   ar
    27    10    11   ar
    28    11    12   ar
    29    12    13   ar
    30     4     5    1
    31     5     6    1
    32     6     7    2
    33    21    16   ar
    34     6     1   am
    35    28    22   ar
    36    13     8   ar
    37    33    34    1
@<TRIPOS>MOLECULE
*****
 34 37 0 0 0
SMALL
GASTEIGER

@<TRIPOS>ATOM
      1 N          62.3758   87.7764   12.1250 N.am    1  UNL1       -0.2438
      2 C          62.0417   86.6924   11.1436 C.3     1  UNL1        0.1009
      3 C          62.5603   85.3012   11.3575 C.3     1  UNL1        0.0662
      4 C          63.4128   84.9941   12.5528 C.3     1  UNL1        0.1600
      5 O          63.7469   86.0782   13.5343 O.3     1  UNL1       -0.4374
      6 C          63.2284   87.4694   13.3203 C.2     1  UNL1        0.4051
      7 O          63.5624   88.5535   14.3017 O.2     1  UNL1       -0.2262
      8 C          63.3697   83.6400   11.9089 C.ar    1  UNL1        0.0138
      9 C          64.0979   83.3990   10.6199 C.ar    1  UNL1       -0.0010
     10 C          64.0548   82.0449    9.9759 C.ar    1  UNL1       -0.0002
     11 C          63.2834   80.9319   10.6210 C.ar    1  UNL1       -0.0000
     12 C          62.5551   81.1729   11.9100 C.ar    1  UNL1       -0.0002
     13 C          62.5982   82.5270   12.5540 C.ar    1  UNL1       -0.0010
     14 C          60.3977   89.4605   12.0947 C.3     1  UNL1        0.0265
     15 C          61.8572   89.1676   11.9110 C.3     1  UNL1        0.1011
     16 C          62.7984   90.2659   11.5134 C.ar    1  UNL1       -0.0042
     17 C          63.7935   90.7958   12.5028 C.ar    1  UNL1       -0.0026
     18 C          64.7346   91.8940   12.1052 C.ar    1  UNL1        0.0012
     19 C          64.6806   92.4624   10.7181 C.ar    1  UNL1        0.0176
     20 C          63.6855   91.9326    9.7287 C.ar    1  UNL1        0.0012
     21 C          62.7444   90.8344   10.1263 C.ar    1  UNL1       -0.0026
     22 C          65.6217   93.5607   10.3205 C.ar    1  UNL1        0.0815
     23 C          66.9592   93.2252    9.7302 C.ar    1  UNL1        0.0215
     24 C          67.9004   94.3236    9.3326 C.ar    1  UNL1        0.0328
     25 C          67.5039   95.7573    9.5252 C.ar    1  UNL1        0.1592
     26 F          68.4450   96.8556    9.1277 F       1  UNL1       -0.2025
     27 C          66.1663   96.0928   10.1155 C.ar    1  UNL1        0.1283
     28 N          65.2253   94.9945   10.5131 N.ar    1  UNL1       -0.2415
     29 C          64.2504   84.2167   13.5245 C.3     1  UNL1        0.0714
     30 C          64.4173   84.7084   14.9318 C.3     1  UNL1        0.0922
     31 C          63.0163   84.2760   15.2490 C.3     1  UNL1        0.0294
     32 C          65.8181   85.1407   14.6146 C.3     1  UNL1        0.0294
     33 O          64.5840   85.2000   16.3391 O.3     1  UNL1       -0.3866
     34 H          63.7659   85.0423   16.8357 H       1  UNL1        0.2102
@<TRIPOS>BOND
     1    15    14    1
     2    15    16    1
     3    16    17   ar
     4    17    18   ar
     5    18    19   ar
     6    19    22    1
     7    22    23   ar
     8    23    24   ar
     9    24    25   ar
    10    25    26    1
    11    25    27   ar
    12    27    28   ar
    13    19    20   ar
    14    20    21   ar
    15    15     1    1
    16     1     2    1
    17     2     3    1
    18     3     4    1
    19     4    29    1
    20    29    30    1
    21    30    31    1
    22    30    32    1
    23    30    33    1
    24     4     8    1
    25     8     9   ar
    26     9    10   ar
    27    10    11   ar
    28    11    12   ar
    29    12    13   ar
    30     4     5    1
    31     5     6    1
    32     6     7    2
    33    21    16   ar
    34     6     1   am
    35    28    22   ar
    36    13     8   ar
    37    33    34    1
@<TRIPOS>MOLECULE
*****
 34 37 0 0 0
SMALL
GASTEIGER

@<TRIPOS>ATOM
      1 N          62.2331   88.4896   11.3176 N.am    1  UNL1       -0.2438
      2 C          62.6113   87.3108   12.1645 C.3     1  UNL1        0.1009
      3 C          62.7676   85.9567   11.5384 C.3     1  UNL1        0.0662
      4 C          62.5458   85.7815   10.0653 C.3     1  UNL1        0.1600
      5 O          62.1675   86.9603    9.2183 O.3     1  UNL1       -0.4374
      6 C          62.0112   88.3144    9.8444 C.2     1  UNL1        0.4051
      7 O          61.6330   89.4932    8.9975 O.2     1  UNL1       -0.2262
      8 C          62.8883   84.3717   10.4466 C.ar    1  UNL1        0.0138
      9 C          62.2176   83.7295   11.6246 C.ar    1  UNL1       -0.0010
     10 C          62.5601   82.3197   12.0060 C.ar    1  UNL1       -0.0002
     11 C          63.5732   81.5524   11.2092 C.ar    1  UNL1       -0.0000
     12 C          64.2438   82.1946   10.0312 C.ar    1  UNL1       -0.0002
     13 C          63.9013   83.6044    9.6499 C.ar    1  UNL1       -0.0010
     14 C          60.7547   90.5497   11.8835 C.3     1  UNL1        0.0265
     15 C          62.0767   89.8436   11.9438 C.3     1  UNL1        0.1011
     16 C          63.2425   90.4917   12.6302 C.ar    1  UNL1       -0.0042
     17 C          64.1292   91.4349   11.8727 C.ar    1  UNL1       -0.0026
     18 C          65.2949   92.0829   12.5591 C.ar    1  UNL1        0.0012
     19 C          65.5739   91.7876   14.0031 C.ar    1  UNL1        0.0176
     20 C          64.6871   90.8443   14.7606 C.ar    1  UNL1        0.0012
     21 C          63.5214   90.1963   14.0741 C.ar    1  UNL1       -0.0026
     22 C          66.7396   92.4356   14.6895 C.ar    1  UNL1        0.0815
     23 C          67.7128   91.5988   15.4658 C.ar    1  UNL1        0.0215
     24 C          68.8786   92.2468   16.1522 C.ar    1  UNL1        0.0328
     25 C          69.0711   93.7316   16.0624 C.ar    1  UNL1        0.1592
     26 F          70.2368   94.3797   16.7487 F       1  UNL1       -0.2025
     27 C          68.0979   94.5685   15.2860 C.ar    1  UNL1        0.1283
     28 N          66.9322   93.9205   14.5996 N.ar    1  UNL1       -0.2415
     29 C          62.4429   85.1166    8.7246 C.3     1  UNL1        0.0714
     30 C          61.2407   85.3547    7.8597 C.3     1  UNL1        0.0922
     31 C          61.9950   84.8399    6.6696 C.3     1  UNL1        0.0294
     32 C          60.4865   85.8694    9.0496 C.3     1  UNL1        0.0294
     33 O          60.0386   85.5928    6.9947 O.3     1  UNL1       -0.3866
     34 H          60.2394   85.3302    6.0827 H       1  UNL1        0.2102
@<TRIPOS>BOND
     1    15    14    1
     2    15    16    1
     3    16    17   ar
     4    17    18   ar
     5    18    19   ar
     6    19    22    1
     7    22    23   ar
     8    23    24   ar
     9    24    25   ar
    10    25    26    1
    11    25    27   ar
    12    27    28   ar
    13    19    20   ar
    14    20    21   ar
    15    15     1    1
    16     1     2    1
    17     2     3    1
    18     3     4    1
    19     4    29    1
    20    29    30    1
    21    30    31    1
    22    30    32    1
    23    30    33    1
    24     4     8    1
    25     8     9   ar
    26     9    10   ar
    27    10    11   ar
    28    11    12   ar
    29    12    13   ar
    30     4     5    1
    31     5     6    1
    32     6     7    2
    33    21    16   ar
    34     6     1   am
    35    28    22   ar
    36    13     8   ar
    37    33    34    1
