@<TRIPOS>MOLECULE
*****
 29 32 0 0 0
SMALL
GASTEIGER

@<TRIPOS>ATOM
      1 C          66.9519   93.1602   12.7783 C.3     1  UNL1        0.0518
      2 C          65.7865   92.2274   12.6300 C.ar    1  UNL1        0.0567
      3 N          64.9291   92.2879   11.4006 N.ar    1  UNL1       -0.2484
      4 C          63.7638   91.3552   11.2523 C.ar    1  UNL1        0.0995
      5 C          62.7483   91.1832   10.1618 C.ar    1  UNL1        0.0955
      6 N          61.8128   90.0836   10.5689 N.ar    1  UNL1       -0.3194
      7 C          62.2501   89.5760   11.9110 C.ar    1  UNL1        0.0777
      8 C          63.4559   90.3619   12.3334 C.ar    1  UNL1        0.0361
      9 C          64.3133   90.3014   13.5627 C.ar    1  UNL1        0.0022
     10 C          65.4786   91.2342   13.7109 C.ar    1  UNL1        0.0071
     11 C          64.0054   89.3081   14.6437 C.ar    1  UNL1        0.0105
     12 C          64.2850   87.8507   14.4250 C.ar    1  UNL1        0.0017
     13 C          63.9771   86.8575   15.5061 C.ar    1  UNL1        0.0114
     14 C          63.3896   87.3216   16.8059 C.ar    1  UNL1        0.0585
     15 CL         63.0817   86.3284   17.8868 Cl      1  UNL1       -0.0822
     16 C          63.1100   88.7791   17.0246 C.ar    1  UNL1        0.0228
     17 C          63.4179   89.7723   15.9436 C.ar    1  UNL1        0.0585
     18 CL         63.1384   91.2297   16.1622 Cl      1  UNL1       -0.0822
     19 C          66.3360   91.1736   14.9403 C.3     1  UNL1        0.0934
     20 N          66.3673   92.3337   15.8907 N.3     1  UNL1       -0.3174
     21 H          66.7876   93.1403   15.4289 H       1  UNL1        0.1192
     22 H          66.9196   92.0859   16.7116 H       1  UNL1        0.1192
     23 C          60.6450   89.5800    9.7736 C.3     1  UNL1        0.1329
     24 C          60.7152   88.2390    9.1051 C.ar    1  UNL1        0.0004
     25 C          61.9012   87.3491    9.3319 C.ar    1  UNL1       -0.0024
     26 C          61.9714   86.0081    8.6634 C.ar    1  UNL1       -0.0003
     27 C          60.8556   85.5570    7.7681 C.ar    1  UNL1       -0.0000
     28 C          59.6696   86.4471    7.5413 C.ar    1  UNL1       -0.0003
     29 C          59.5994   87.7880    8.2098 C.ar    1  UNL1       -0.0024
@<TRIPOS>BOND
     1     1     2    1
     2     2     3   ar
     3     3     4   ar
     4     4     5   ar
     5     5     6   ar
     6     6    23    1
     7    23    24    1
     8    24    25   ar
     9    25    26   ar
    10    26    27   ar
    11    27    28   ar
    12    28    29   ar
    13     6     7   ar
    14     7     8   ar
    15     8     9   ar
    16     9    11    1
    17    11    12   ar
    18    12    13   ar
    19    13    14   ar
    20    14    15    1
    21    14    16   ar
    22    16    17   ar
    23    17    18    1
    24     9    10   ar
    25    10    19    1
    26    19    20    1
    27    10     2   ar
    28     8     4   ar
    29    17    11   ar
    30    29    24   ar
    31    20    21    1
    32    20    22    1
@<TRIPOS>MOLECULE
*****
 29 32 0 0 0
SMALL
GASTEIGER

@<TRIPOS>ATOM
      1 C          66.4141   91.0711   15.5630 C.3     1  UNL1        0.0518
      2 C          65.7151   91.2637   14.2498 C.ar    1  UNL1        0.0567
      3 N          64.4812   90.4713   13.9336 N.ar    1  UNL1       -0.2484
      4 C          63.7823   90.6640   12.6205 C.ar    1  UNL1        0.0995
      5 C          62.5557   90.0303   12.0340 C.ar    1  UNL1        0.0955
      6 N          62.3325   90.6236   10.6745 N.ar    1  UNL1       -0.3194
      7 C          63.4211   91.6239   10.4208 C.ar    1  UNL1        0.0777
      8 C          64.3171   91.6489   11.6236 C.ar    1  UNL1        0.0361
      9 C          65.5509   92.4412   11.9397 C.ar    1  UNL1        0.0022
     10 C          66.2499   92.2486   13.2529 C.ar    1  UNL1        0.0071
     11 C          66.0858   93.4261   10.9428 C.ar    1  UNL1        0.0105
     12 C          65.4800   94.7946   10.8414 C.ar    1  UNL1        0.0017
     13 C          66.0150   95.7795    9.8444 C.ar    1  UNL1        0.0114
     14 C          67.1555   95.3959    8.9489 C.ar    1  UNL1        0.0585
     15 CL         67.6904   96.3807    7.9520 Cl      1  UNL1       -0.0822
     16 C          67.7612   94.0273    9.0504 C.ar    1  UNL1        0.0228
     17 C          67.2264   93.0425   10.0473 C.ar    1  UNL1        0.0585
     18 CL         67.8321   91.6740   10.1488 Cl      1  UNL1       -0.0822
     19 C          67.4837   93.0409   13.5690 C.3     1  UNL1        0.0934
     20 N          68.7820   92.3357   13.8278 N.3     1  UNL1       -0.3174
     21 H          68.7065   91.7881   14.6850 H       1  UNL1        0.1192
     22 H          69.5284   93.0235   13.9285 H       1  UNL1        0.1192
     23 C          61.2166   90.2774    9.7338 C.3     1  UNL1        0.1329
     24 C          61.0458   88.8643    9.2606 C.ar    1  UNL1        0.0004
     25 C          62.0654   87.8245    9.6201 C.ar    1  UNL1       -0.0024
     26 C          61.8945   86.4113    9.1470 C.ar    1  UNL1       -0.0003
     27 C          60.7040   86.0380    8.3143 C.ar    1  UNL1       -0.0000
     28 C          59.6843   87.0778    7.9549 C.ar    1  UNL1       -0.0003
     29 C          59.8552   88.4909    8.4280 C.ar    1  UNL1       -0.0024
@<TRIPOS>BOND
     1     1     2    1
     2     2     3   ar
     3     3     4   ar
     4     4     5   ar
     5     5     6   ar
     6     6    23    1
     7    23    24    1
     8    24    25   ar
     9    25    26   ar
    10    26    27   ar
    11    27    28   ar
    12    28    29   ar
    13     6     7   ar
    14     7     8   ar
    15     8     9   ar
    16     9    11    1
    17    11    12   ar
    18    12    13   ar
    19    13    14   ar
    20    14    15    1
    21    14    16   ar
    22    16    17   ar
    23    17    18    1
    24     9    10   ar
    25    10    19    1
    26    19    20    1
    27    10     2   ar
    28     8     4   ar
    29    17    11   ar
    30    29    24   ar
    31    20    21    1
    32    20    22    1
@<TRIPOS>MOLECULE
*****
 29 32 0 0 0
SMALL
GASTEIGER

@<TRIPOS>ATOM
      1 C          59.2559   88.6873    7.3293 C.3     1  UNL1        0.0518
      2 C          60.1696   88.5723    8.5134 C.ar    1  UNL1        0.0567
      3 N          60.4906   89.7865    9.3337 N.ar    1  UNL1       -0.2484
      4 C          61.4043   89.6716   10.5177 C.ar    1  UNL1        0.0995
      5 C          61.8990   90.6858   11.5059 C.ar    1  UNL1        0.0955
      6 N          62.7975   89.9836   12.4804 N.ar    1  UNL1       -0.3194
      7 C          62.8580   88.5353   12.0945 C.ar    1  UNL1        0.0777
      8 C          61.9969   88.3425   10.8815 C.ar    1  UNL1        0.0361
      9 C          61.6759   87.1284   10.0612 C.ar    1  UNL1        0.0022
     10 C          60.7622   87.2434    8.8772 C.ar    1  UNL1        0.0071
     11 C          62.2685   85.7993   10.4250 C.ar    1  UNL1        0.0105
     12 C          62.0092   85.2077   11.7788 C.ar    1  UNL1        0.0017
     13 C          62.6019   83.8786   12.1425 C.ar    1  UNL1        0.0114
     14 C          63.4538   83.1411   11.1525 C.ar    1  UNL1        0.0585
     15 CL         64.0464   81.8121   11.5162 Cl      1  UNL1       -0.0822
     16 C          63.7131   83.7327    9.7986 C.ar    1  UNL1        0.0228
     17 C          63.1205   85.0617    9.4349 C.ar    1  UNL1        0.0585
     18 CL         63.3797   85.6533    8.0811 Cl      1  UNL1       -0.0822
     19 C          60.4412   86.0291    8.0569 C.3     1  UNL1        0.0934
     20 N          59.0605   85.8433    7.5009 N.3     1  UNL1       -0.3174
     21 H          58.4004   85.7111    8.2672 H       1  UNL1        0.1192
     22 H          59.0458   85.0235    6.8942 H       1  UNL1        0.1192
     23 C          63.5103   90.6182   13.6376 C.3     1  UNL1        0.1329
     24 C          64.8573   91.2464   13.4355 C.ar    1  UNL1        0.0004
     25 C          65.1342   92.0448   12.1962 C.ar    1  UNL1       -0.0024
     26 C          66.4812   92.6731   11.9941 C.ar    1  UNL1       -0.0003
     27 C          67.5514   92.5030   13.0314 C.ar    1  UNL1       -0.0000
     28 C          67.2744   91.7046   14.2707 C.ar    1  UNL1       -0.0003
     29 C          65.9274   91.0763   14.4728 C.ar    1  UNL1       -0.0024
@<TRIPOS>BOND
     1     1     2    1
     2     2     3   ar
     3     3     4   ar
     4     4     5   ar
     5     5     6   ar
     6     6    23    1
     7    23    24    1
     8    24    25   ar
     9    25    26   ar
    10    26    27   ar
    11    27    28   ar
    12    28    29   ar
    13     6     7   ar
    14     7     8   ar
    15     8     9   ar
    16     9    11    1
    17    11    12   ar
    18    12    13   ar
    19    13    14   ar
    20    14    15    1
    21    14    16   ar
    22    16    17   ar
    23    17    18    1
    24     9    10   ar
    25    10    19    1
    26    19    20    1
    27    10     2   ar
    28     8     4   ar
    29    17    11   ar
    30    29    24   ar
    31    20    21    1
    32    20    22    1
@<TRIPOS>MOLECULE
*****
 29 32 0 0 0
SMALL
GASTEIGER

@<TRIPOS>ATOM
      1 C          66.8759   93.0887   12.4930 C.3     1  UNL1        0.0518
      2 C          65.6731   92.1930   12.4562 C.ar    1  UNL1        0.0567
      3 N          64.8071   92.1502   11.2322 N.ar    1  UNL1       -0.2484
      4 C          63.6044   91.2546   11.1955 C.ar    1  UNL1        0.0995
      5 C          62.5725   91.0028   10.1363 C.ar    1  UNL1        0.0955
      6 N          61.5981   89.9944   10.6690 N.ar    1  UNL1       -0.3194
      7 C          62.0277   89.6231   12.0573 C.ar    1  UNL1        0.0777
      8 C          63.2677   90.4019   12.3827 C.ar    1  UNL1        0.0361
      9 C          64.1337   90.4448   13.6067 C.ar    1  UNL1        0.0022
     10 C          65.3364   91.3404   13.6434 C.ar    1  UNL1        0.0071
     11 C          63.7970   89.5921   14.7940 C.ar    1  UNL1        0.0105
     12 C          63.3596   90.2329   16.0777 C.ar    1  UNL1        0.0017
     13 C          63.0229   89.3801   17.2649 C.ar    1  UNL1        0.0114
     14 C          63.1237   87.8866   17.1685 C.ar    1  UNL1        0.0585
     15 CL         62.7870   87.0340   18.3556 Cl      1  UNL1       -0.0822
     16 C          63.5611   87.2459   15.8846 C.ar    1  UNL1        0.0228
     17 C          63.8978   88.0985   14.6974 C.ar    1  UNL1        0.0585
     18 CL         64.3352   87.4579   13.4136 Cl      1  UNL1       -0.0822
     19 C          66.2024   91.3833   14.8675 C.3     1  UNL1        0.0934
     20 N          66.0983   92.5375   15.8197 N.3     1  UNL1       -0.3174
     21 H          66.4146   93.3897   15.3569 H       1  UNL1        0.1192
     22 H          66.6817   92.3579   16.6369 H       1  UNL1        0.1192
     23 C          60.4037   89.4526    9.9411 C.3     1  UNL1        0.1329
     24 C          60.5125   88.1692    9.1724 C.ar    1  UNL1        0.0004
     25 C          59.4003   87.7450    8.2596 C.ar    1  UNL1       -0.0024
     26 C          59.5092   86.4616    7.4908 C.ar    1  UNL1       -0.0003
     27 C          60.7302   85.6023    7.6348 C.ar    1  UNL1       -0.0000
     28 C          61.8424   86.0265    8.5477 C.ar    1  UNL1       -0.0003
     29 C          61.7335   87.3099    9.3164 C.ar    1  UNL1       -0.0024
@<TRIPOS>BOND
     1     1     2    1
     2     2     3   ar
     3     3     4   ar
     4     4     5   ar
     5     5     6   ar
     6     6    23    1
     7    23    24    1
     8    24    25   ar
     9    25    26   ar
    10    26    27   ar
    11    27    28   ar
    12    28    29   ar
    13     6     7   ar
    14     7     8   ar
    15     8     9   ar
    16     9    11    1
    17    11    12   ar
    18    12    13   ar
    19    13    14   ar
    20    14    15    1
    21    14    16   ar
    22    16    17   ar
    23    17    18    1
    24     9    10   ar
    25    10    19    1
    26    19    20    1
    27    10     2   ar
    28     8     4   ar
    29    17    11   ar
    30    29    24   ar
    31    20    21    1
    32    20    22    1
@<TRIPOS>MOLECULE
*****
 29 32 0 0 0
SMALL
GASTEIGER

@<TRIPOS>ATOM
      1 C          63.8491   83.4421   14.9414 C.3     1  UNL1        0.0518
      2 C          63.7026   84.7713   14.2618 C.ar    1  UNL1        0.0567
      3 N          64.2717   86.0053   14.8973 N.ar    1  UNL1       -0.2484
      4 C          64.1251   87.3344   14.2177 C.ar    1  UNL1        0.0995
      5 C          64.5782   88.7124   14.5998 C.ar    1  UNL1        0.0955
      6 N          64.1427   89.6592   13.5211 N.ar    1  UNL1       -0.3194
      7 C          63.4205   88.8665   12.4722 C.ar    1  UNL1        0.0777
      8 C          63.4096   87.4297   12.9028 C.ar    1  UNL1        0.0361
      9 C          62.8406   86.1958   12.2675 C.ar    1  UNL1        0.0022
     10 C          62.9872   84.8666   12.9470 C.ar    1  UNL1        0.0071
     11 C          62.1251   86.2910   10.9526 C.ar    1  UNL1        0.0105
     12 C          62.6842   85.6025    9.7429 C.ar    1  UNL1        0.0017
     13 C          61.9686   85.6978    8.4280 C.ar    1  UNL1        0.0114
     14 C          60.6940   86.4816    8.3227 C.ar    1  UNL1        0.0585
     15 CL         59.9785   86.5769    7.0079 Cl      1  UNL1       -0.0822
     16 C          60.1350   87.1702    9.5325 C.ar    1  UNL1        0.0228
     17 C          60.8505   87.0749   10.8473 C.ar    1  UNL1        0.0585
     18 CL         60.2915   87.7634   12.0571 Cl      1  UNL1       -0.0822
     19 C          62.4181   83.6327   12.3116 C.3     1  UNL1        0.0934
     20 N          63.3135   82.6992   11.5521 N.3     1  UNL1       -0.3174
     21 H          63.6695   83.1707   10.7207 H       1  UNL1        0.1192
     22 H          62.7851   81.8722   11.2740 H       1  UNL1        0.1192
     23 C          64.3866   91.1391   13.4955 C.3     1  UNL1        0.1329
     24 C          65.6034   91.7102   14.1613 C.ar    1  UNL1        0.0004
     25 C          65.5304   92.1755   15.5854 C.ar    1  UNL1       -0.0024
     26 C          66.7471   92.7466   16.2512 C.ar    1  UNL1       -0.0003
     27 C          68.0370   92.8526   15.4929 C.ar    1  UNL1       -0.0000
     28 C          68.1099   92.3873   14.0686 C.ar    1  UNL1       -0.0003
     29 C          66.8932   91.8162   13.4029 C.ar    1  UNL1       -0.0024
@<TRIPOS>BOND
     1     1     2    1
     2     2     3   ar
     3     3     4   ar
     4     4     5   ar
     5     5     6   ar
     6     6    23    1
     7    23    24    1
     8    24    25   ar
     9    25    26   ar
    10    26    27   ar
    11    27    28   ar
    12    28    29   ar
    13     6     7   ar
    14     7     8   ar
    15     8     9   ar
    16     9    11    1
    17    11    12   ar
    18    12    13   ar
    19    13    14   ar
    20    14    15    1
    21    14    16   ar
    22    16    17   ar
    23    17    18    1
    24     9    10   ar
    25    10    19    1
    26    19    20    1
    27    10     2   ar
    28     8     4   ar
    29    17    11   ar
    30    29    24   ar
    31    20    21    1
    32    20    22    1
@<TRIPOS>MOLECULE
*****
 29 32 0 0 0
SMALL
GASTEIGER

@<TRIPOS>ATOM
      1 C          58.6560   88.4968    7.1353 C.3     1  UNL1        0.0518
      2 C          59.7908   88.5073    8.1163 C.ar    1  UNL1        0.0567
      3 N          60.2465   89.8017    8.7222 N.ar    1  UNL1       -0.2484
      4 C          61.3812   89.8122    9.7031 C.ar    1  UNL1        0.0995
      5 C          62.0446   90.9255   10.4585 C.ar    1  UNL1        0.0955
      6 N          63.1337   90.3296   11.3004 N.ar    1  UNL1       -0.3194
      7 C          63.1434   88.8482   11.0654 C.ar    1  UNL1        0.0777
      8 C          62.0603   88.5284   10.0782 C.ar    1  UNL1        0.0361
      9 C          61.6046   87.2341    9.4723 C.ar    1  UNL1        0.0022
     10 C          60.4699   87.2236    8.4914 C.ar    1  UNL1        0.0071
     11 C          62.2837   85.9503    9.8474 C.ar    1  UNL1        0.0105
     12 C          63.1363   85.2318    8.8439 C.ar    1  UNL1        0.0017
     13 C          63.8154   83.9480    9.2191 C.ar    1  UNL1        0.0114
     14 C          63.6418   83.3826   10.5976 C.ar    1  UNL1        0.0585
     15 CL         64.3208   82.0988   10.9726 Cl      1  UNL1       -0.0822
     16 C          62.7891   84.1011   11.6010 C.ar    1  UNL1        0.0228
     17 C          62.1101   85.3849   11.2259 C.ar    1  UNL1        0.0585
     18 CL         61.2575   86.1034   12.2292 Cl      1  UNL1       -0.0822
     19 C          60.0142   85.9292    7.8855 C.3     1  UNL1        0.0934
     20 N          60.6734   85.4101    6.6421 N.3     1  UNL1       -0.3174
     21 H          60.4774   86.0407    5.8648 H       1  UNL1        0.1192
     22 H          60.3097   84.4817    6.4267 H       1  UNL1        0.1192
     23 C          64.0519   91.0830   12.2165 C.3     1  UNL1        0.1329
     24 C          63.9372   90.9096   13.7020 C.ar    1  UNL1        0.0004
     25 C          63.0036   89.8806   14.2672 C.ar    1  UNL1       -0.0024
     26 C          62.8889   89.7072   15.7527 C.ar    1  UNL1       -0.0003
     27 C          63.7078   90.5629   16.6732 C.ar    1  UNL1       -0.0000
     28 C          64.6415   91.5920   16.1079 C.ar    1  UNL1       -0.0003
     29 C          64.7562   91.7654   14.6224 C.ar    1  UNL1       -0.0024
@<TRIPOS>BOND
     1     1     2    1
     2     2     3   ar
     3     3     4   ar
     4     4     5   ar
     5     5     6   ar
     6     6    23    1
     7    23    24    1
     8    24    25   ar
     9    25    26   ar
    10    26    27   ar
    11    27    28   ar
    12    28    29   ar
    13     6     7   ar
    14     7     8   ar
    15     8     9   ar
    16     9    11    1
    17    11    12   ar
    18    12    13   ar
    19    13    14   ar
    20    14    15    1
    21    14    16   ar
    22    16    17   ar
    23    17    18    1
    24     9    10   ar
    25    10    19    1
    26    19    20    1
    27    10     2   ar
    28     8     4   ar
    29    17    11   ar
    30    29    24   ar
    31    20    21    1
    32    20    22    1
@<TRIPOS>MOLECULE
*****
 29 32 0 0 0
SMALL
GASTEIGER

@<TRIPOS>ATOM
      1 C          63.2101   80.9055   11.2368 C.3     1  UNL1        0.0518
      2 C          63.0264   82.3737   11.4839 C.ar    1  UNL1        0.0567
      3 N          62.8435   83.3117   10.3276 N.ar    1  UNL1       -0.2484
      4 C          62.6598   84.7797   10.5747 C.ar    1  UNL1        0.0995
      5 C          62.4588   85.9370    9.6419 C.ar    1  UNL1        0.0955
      6 N          62.3337   87.1824   10.4687 N.ar    1  UNL1       -0.3194
      7 C          62.4574   86.7947   11.9124 C.ar    1  UNL1        0.0777
      8 C          62.6589   85.3097   11.9780 C.ar    1  UNL1        0.0361
      9 C          62.8418   84.3717   13.1341 C.ar    1  UNL1        0.0022
     10 C          63.0255   82.9037   12.8870 C.ar    1  UNL1        0.0071
     11 C          62.8409   84.9018   14.5373 C.ar    1  UNL1        0.0105
     12 C          61.5552   84.9901   15.3049 C.ar    1  UNL1        0.0017
     13 C          61.5545   85.5201   16.7082 C.ar    1  UNL1        0.0114
     14 C          62.8393   85.9618   17.3439 C.ar    1  UNL1        0.0585
     15 CL         62.8384   86.4918   18.7470 Cl      1  UNL1       -0.0822
     16 C          64.1250   85.8735   16.5762 C.ar    1  UNL1        0.0228
     17 C          64.1258   85.3435   15.1730 C.ar    1  UNL1        0.0585
     18 CL         65.4115   85.2551   14.4053 Cl      1  UNL1       -0.0822
     19 C          63.2083   81.9657   14.0432 C.3     1  UNL1        0.0934
     20 N          62.0133   81.3289   14.6886 N.3     1  UNL1       -0.3174
     21 H          61.4472   82.0476   15.1396 H       1  UNL1        0.1192
     22 H          62.3237   80.6528   15.3864 H       1  UNL1        0.1192
     23 C          62.1220   88.5715    9.9438 C.3     1  UNL1        0.1329
     24 C          62.8268   89.7306   10.5840 C.ar    1  UNL1        0.0004
     25 C          63.1808   89.6815   12.0407 C.ar    1  UNL1       -0.0024
     26 C          63.8856   90.8405   12.6809 C.ar    1  UNL1       -0.0003
     27 C          64.2364   92.0489   11.8642 C.ar    1  UNL1       -0.0000
     28 C          63.8824   92.0980   10.4074 C.ar    1  UNL1       -0.0003
     29 C          63.1776   90.9389    9.7672 C.ar    1  UNL1       -0.0024
@<TRIPOS>BOND
     1     1     2    1
     2     2     3   ar
     3     3     4   ar
     4     4     5   ar
     5     5     6   ar
     6     6    23    1
     7    23    24    1
     8    24    25   ar
     9    25    26   ar
    10    26    27   ar
    11    27    28   ar
    12    28    29   ar
    13     6     7   ar
    14     7     8   ar
    15     8     9   ar
    16     9    11    1
    17    11    12   ar
    18    12    13   ar
    19    13    14   ar
    20    14    15    1
    21    14    16   ar
    22    16    17   ar
    23    17    18    1
    24     9    10   ar
    25    10    19    1
    26    19    20    1
    27    10     2   ar
    28     8     4   ar
    29    17    11   ar
    30    29    24   ar
    31    20    21    1
    32    20    22    1
