@<TRIPOS>MOLECULE
*****
 21 23 0 0 0
SMALL
GASTEIGER

@<TRIPOS>ATOM
      1 N          69.1203   94.1721   16.1818 N.pl3   1  UNL1       -0.3289
      2 C          67.9371   93.4752   15.5780 C.ar    1  UNL1        0.1952
      3 N          67.9171   93.1662   14.1104 N.ar    1  UNL1       -0.1794
      4 C          66.7339   92.4693   13.5067 C.ar    1  UNL1        0.2506
      5 C          65.5708   92.0813   14.3707 C.ar    1  UNL1        0.1930
      6 N          64.2762   91.3902   14.0601 N.ar    1  UNL1       -0.1207
      7 N          63.4962   91.2720   15.3359 N.ar    1  UNL1       -0.0405
      8 N          64.3086   91.8901   16.4350 N.ar    1  UNL1       -0.1092
      9 C          65.5908   92.3903   15.8384 C.ar    1  UNL1        0.1899
     10 N          66.7740   93.0872   16.4421 N.ar    1  UNL1       -0.3094
     11 H          69.8837   94.4268   15.6147 H       1  UNL1        0.1451
     12 H          69.1334   94.3749   17.1451 H       1  UNL1        0.1451
     13 H          66.7871   93.2900   17.4054 H       1  UNL1        0.1701
     14 O          66.7139   92.1603   12.0389 O.3     1  UNL1       -0.4541
     15 C          65.8384   92.9560   11.1169 C.3     1  UNL1        0.2338
     16 C          66.3351   94.2490   10.5411 C.ar    1  UNL1        0.0212
     17 C          67.0058   94.2640    9.1995 C.ar    1  UNL1       -0.0007
     18 C          67.5025   95.5570    8.6237 C.ar    1  UNL1       -0.0002
     19 C          67.3284   96.8350    9.3895 C.ar    1  UNL1       -0.0000
     20 C          66.6578   96.8200   10.7311 C.ar    1  UNL1       -0.0002
     21 C          66.1611   95.5270   11.3069 C.ar    1  UNL1       -0.0007
@<TRIPOS>BOND
     1     1     2    1
     2     2     3   ar
     3     3     4   ar
     4     4    14    1
     5    14    15    1
     6    15    16    1
     7    16    17   ar
     8    17    18   ar
     9    18    19   ar
    10    19    20   ar
    11    20    21   ar
    12     4     5   ar
    13     5     6   ar
    14     6     7   ar
    15     7     8   ar
    16     8     9   ar
    17     9    10   ar
    18    10     2   ar
    19    21    16   ar
    20     9     5    1
    21     1    11    1
    22     1    12    1
    23    10    13    1
@<TRIPOS>MOLECULE
*****
 21 23 0 0 0
SMALL
GASTEIGER

@<TRIPOS>ATOM
      1 N          62.3991   85.7794   10.4092 N.pl3   1  UNL1       -0.3289
      2 C          62.5116   84.8232   11.5596 C.ar    1  UNL1        0.1952
      3 N          62.4550   85.3348   12.9684 N.ar    1  UNL1       -0.1794
      4 C          62.5676   84.3786   14.1187 C.ar    1  UNL1        0.2506
      5 C          62.7366   82.9108   13.8600 C.ar    1  UNL1        0.1930
      6 N          62.8737   81.7380   14.7850 N.ar    1  UNL1       -0.1207
      7 N          63.0151   80.5015   13.9477 N.ar    1  UNL1       -0.0405
      8 N          62.9652   80.9101   12.5053 N.ar    1  UNL1       -0.1092
      9 C          62.7932   82.3992   12.4511 C.ar    1  UNL1        0.1899
     10 N          62.6807   83.3554   11.3009 N.ar    1  UNL1       -0.3094
     11 H          62.2881   86.7428   10.5790 H       1  UNL1        0.1451
     12 H          62.4362   85.4435    9.4845 H       1  UNL1        0.1451
     13 H          62.7178   83.0196   10.3761 H       1  UNL1        0.1701
     14 O          62.5110   84.8904   15.5276 O.3     1  UNL1       -0.4541
     15 C          63.6552   85.6853   16.0833 C.3     1  UNL1        0.2338
     16 C          63.7043   87.1708   15.8814 C.ar    1  UNL1        0.0212
     17 C          63.0815   88.0863   16.8933 C.ar    1  UNL1       -0.0007
     18 C          63.1306   89.5718   16.6913 C.ar    1  UNL1       -0.0002
     19 C          63.8026   90.1419   15.4774 C.ar    1  UNL1       -0.0000
     20 C          64.4254   89.2264   14.4654 C.ar    1  UNL1       -0.0002
     21 C          64.3763   87.7409   14.6675 C.ar    1  UNL1       -0.0007
@<TRIPOS>BOND
     1     1     2    1
     2     2     3   ar
     3     3     4   ar
     4     4    14    1
     5    14    15    1
     6    15    16    1
     7    16    17   ar
     8    17    18   ar
     9    18    19   ar
    10    19    20   ar
    11    20    21   ar
    12     4     5   ar
    13     5     6   ar
    14     6     7   ar
    15     7     8   ar
    16     8     9   ar
    17     9    10   ar
    18    10     2   ar
    19    21    16   ar
    20     9     5    1
    21     1    11    1
    22     1    12    1
    23    10    13    1
@<TRIPOS>MOLECULE
*****
 21 23 0 0 0
SMALL
GASTEIGER

@<TRIPOS>ATOM
      1 N          64.2541   85.5898   16.0986 N.pl3   1  UNL1       -0.3289
      2 C          63.7785   84.6713   15.0122 C.ar    1  UNL1        0.1952
      3 N          63.2436   85.2388   13.7310 N.ar    1  UNL1       -0.1794
      4 C          62.7679   84.3203   12.6446 C.ar    1  UNL1        0.2506
      5 C          62.8272   82.8342   12.8396 C.ar    1  UNL1        0.1930
      6 N          62.4333   81.6892   11.9543 N.ar    1  UNL1       -0.1207
      7 N          62.7248   80.4141   12.6884 N.ar    1  UNL1       -0.0405
      8 N          63.2989   80.7709   14.0275 N.ar    1  UNL1       -0.1092
      9 C          63.3622   82.2667   14.1210 C.ar    1  UNL1        0.1899
     10 N          63.8378   83.1852   15.2072 N.ar    1  UNL1       -0.3094
     11 H          64.2152   86.5652   15.9706 H       1  UNL1        0.1451
     12 H          64.6052   85.2173   16.9395 H       1  UNL1        0.1451
     13 H          64.1889   82.8127   16.0482 H       1  UNL1        0.1701
     14 O          62.2330   84.8879   11.3633 O.3     1  UNL1       -0.4541
     15 C          62.2764   86.3678   11.1227 C.3     1  UNL1        0.2338
     16 C          61.4030   86.9823   10.0693 C.ar    1  UNL1        0.0212
     17 C          60.7369   86.1114    9.0456 C.ar    1  UNL1       -0.0007
     18 C          59.8636   86.7259    7.9922 C.ar    1  UNL1       -0.0002
     19 C          59.6564   88.2113    7.9624 C.ar    1  UNL1       -0.0000
     20 C          60.3225   89.0821    8.9861 C.ar    1  UNL1       -0.0002
     21 C          61.1958   88.4676   10.0396 C.ar    1  UNL1       -0.0007
@<TRIPOS>BOND
     1     1     2    1
     2     2     3   ar
     3     3     4   ar
     4     4    14    1
     5    14    15    1
     6    15    16    1
     7    16    17   ar
     8    17    18   ar
     9    18    19   ar
    10    19    20   ar
    11    20    21   ar
    12     4     5   ar
    13     5     6   ar
    14     6     7   ar
    15     7     8   ar
    16     8     9   ar
    17     9    10   ar
    18    10     2   ar
    19    21    16   ar
    20     9     5    1
    21     1    11    1
    22     1    12    1
    23    10    13    1
@<TRIPOS>MOLECULE
*****
 21 23 0 0 0
SMALL
GASTEIGER

@<TRIPOS>ATOM
      1 N          61.9846   80.8172   14.5078 N.pl3   1  UNL1       -0.3289
      2 C          62.4328   82.2358   14.3152 C.ar    1  UNL1        0.1952
      3 N          62.5426   82.8065   12.9325 N.ar    1  UNL1       -0.1794
      4 C          62.9908   84.2250   12.7399 C.ar    1  UNL1        0.2506
      5 C          63.3291   85.0727   13.9302 C.ar    1  UNL1        0.1930
      6 N          63.7949   86.4935   14.0508 N.ar    1  UNL1       -0.1207
      7 N          63.9728   86.8008   15.5081 N.ar    1  UNL1       -0.0405
      8 N          63.6171   85.5700   16.2883 N.ar    1  UNL1       -0.1092
      9 C          63.2192   84.5020   15.3131 C.ar    1  UNL1        0.1899
     10 N          62.7710   83.0835   15.5055 N.ar    1  UNL1       -0.3094
     11 H          61.7625   80.2608   13.7265 H       1  UNL1        0.1451
     12 H          61.9125   80.4427   15.4154 H       1  UNL1        0.1451
     13 H          62.6989   82.7089   16.4131 H       1  UNL1        0.1701
     14 O          63.1007   84.7957   11.3570 O.3     1  UNL1       -0.4541
     15 C          61.8602   85.1332   10.5842 C.3     1  UNL1        0.2338
     16 C          61.5643   86.5596   10.2266 C.ar    1  UNL1        0.0212
     17 C          62.3424   87.6704   10.8674 C.ar    1  UNL1       -0.0007
     18 C          62.0465   89.0968   10.5098 C.ar    1  UNL1       -0.0002
     19 C          60.9724   89.4124    9.5113 C.ar    1  UNL1       -0.0000
     20 C          60.1943   88.3015    8.8705 C.ar    1  UNL1       -0.0002
     21 C          60.4903   86.8752    9.2282 C.ar    1  UNL1       -0.0007
@<TRIPOS>BOND
     1     1     2    1
     2     2     3   ar
     3     3     4   ar
     4     4    14    1
     5    14    15    1
     6    15    16    1
     7    16    17   ar
     8    17    18   ar
     9    18    19   ar
    10    19    20   ar
    11    20    21   ar
    12     4     5   ar
    13     5     6   ar
    14     6     7   ar
    15     7     8   ar
    16     8     9   ar
    17     9    10   ar
    18    10     2   ar
    19    21    16   ar
    20     9     5    1
    21     1    11    1
    22     1    12    1
    23    10    13    1
@<TRIPOS>MOLECULE
*****
 21 23 0 0 0
SMALL
GASTEIGER

@<TRIPOS>ATOM
      1 N          67.6652   93.6616   16.0663 N.pl3   1  UNL1       -0.3289
      2 C          66.7668   93.1212   14.9935 C.ar    1  UNL1        0.1952
      3 N          65.5748   92.2888   15.3622 N.ar    1  UNL1       -0.1794
      4 C          64.6764   91.7484   14.2894 C.ar    1  UNL1        0.2506
      5 C          64.9702   92.0405   12.8477 C.ar    1  UNL1        0.1930
      6 N          64.2699   91.6469   11.5810 N.ar    1  UNL1       -0.1207
      7 N          65.0291   92.2361   10.4293 N.ar    1  UNL1       -0.0405
      8 N          66.1987   92.9938   10.9843 N.ar    1  UNL1       -0.1092
      9 C          66.1623   92.8729   12.4789 C.ar    1  UNL1        0.1899
     10 N          67.0606   93.4133   13.5518 N.ar    1  UNL1       -0.3094
     11 H          67.4724   93.4699   17.0126 H       1  UNL1        0.1451
     12 H          68.4476   94.2080   15.8242 H       1  UNL1        0.1451
     13 H          67.8430   93.9596   13.3098 H       1  UNL1        0.1701
     14 O          63.4844   90.9159   14.6582 O.3     1  UNL1       -0.4541
     15 C          63.4579   90.1819   15.9661 C.3     1  UNL1        0.2338
     16 C          63.5674   88.6861   15.9889 C.ar    1  UNL1        0.0212
     17 C          64.2865   87.9698   14.8845 C.ar    1  UNL1       -0.0007
     18 C          64.3961   86.4739   14.9073 C.ar    1  UNL1       -0.0002
     19 C          63.7864   85.6944   16.0346 C.ar    1  UNL1       -0.0000
     20 C          63.0672   86.4107   17.1390 C.ar    1  UNL1       -0.0002
     21 C          62.9577   87.9066   17.1161 C.ar    1  UNL1       -0.0007
@<TRIPOS>BOND
     1     1     2    1
     2     2     3   ar
     3     3     4   ar
     4     4    14    1
     5    14    15    1
     6    15    16    1
     7    16    17   ar
     8    17    18   ar
     9    18    19   ar
    10    19    20   ar
    11    20    21   ar
    12     4     5   ar
    13     5     6   ar
    14     6     7   ar
    15     7     8   ar
    16     8     9   ar
    17     9    10   ar
    18    10     2   ar
    19    21    16   ar
    20     9     5    1
    21     1    11    1
    22     1    12    1
    23    10    13    1
@<TRIPOS>MOLECULE
*****
 21 23 0 0 0
SMALL
GASTEIGER

@<TRIPOS>ATOM
      1 N          65.1732   92.6397   10.3988 N.pl3   1  UNL1       -0.3289
      2 C          64.5271   91.8693   11.5119 C.ar    1  UNL1        0.1952
      3 N          63.5142   90.8079   11.2001 N.ar    1  UNL1       -0.1794
      4 C          62.8681   90.0374   12.3133 C.ar    1  UNL1        0.2506
      5 C          63.2351   90.3285   13.7383 C.ar    1  UNL1        0.1930
      6 N          62.7688   89.7372   15.0356 N.ar    1  UNL1       -0.1207
      7 N          63.4936   90.4333   16.1492 N.ar    1  UNL1       -0.0405
      8 N          64.4078   91.4547   15.5402 N.ar    1  UNL1       -0.1092
      9 C          64.2480   91.3899   14.0501 C.ar    1  UNL1        0.1899
     10 N          64.8941   92.1603   12.9369 N.ar    1  UNL1       -0.3094
     11 H          64.9324   92.4488    9.4635 H       1  UNL1        0.1451
     12 H          65.8380   93.3364   10.6035 H       1  UNL1        0.1451
     13 H          65.5589   92.8570   13.1416 H       1  UNL1        0.1701
     14 O          61.8551   88.9760   12.0014 O.3     1  UNL1       -0.4541
     15 C          62.1522   87.9388   10.9593 C.3     1  UNL1        0.2338
     16 C          61.2266   87.7615    9.7924 C.ar    1  UNL1        0.0212
     17 C          60.5765   88.9574    9.1623 C.ar    1  UNL1       -0.0007
     18 C          59.6508   88.7801    7.9954 C.ar    1  UNL1       -0.0002
     19 C          59.3752   87.4067    7.4585 C.ar    1  UNL1       -0.0000
     20 C          60.0254   86.2108    8.0886 C.ar    1  UNL1       -0.0002
     21 C          60.9510   86.3882    9.2556 C.ar    1  UNL1       -0.0007
@<TRIPOS>BOND
     1     1     2    1
     2     2     3   ar
     3     3     4   ar
     4     4    14    1
     5    14    15    1
     6    15    16    1
     7    16    17   ar
     8    17    18   ar
     9    18    19   ar
    10    19    20   ar
    11    20    21   ar
    12     4     5   ar
    13     5     6   ar
    14     6     7   ar
    15     7     8   ar
    16     8     9   ar
    17     9    10   ar
    18    10     2   ar
    19    21    16   ar
    20     9     5    1
    21     1    11    1
    22     1    12    1
    23    10    13    1
@<TRIPOS>MOLECULE
*****
 21 23 0 0 0
SMALL
GASTEIGER

@<TRIPOS>ATOM
      1 N          59.0143   88.2084    7.4220 N.pl3   1  UNL1       -0.3289
      2 C          59.9252   88.3254    8.6081 C.ar    1  UNL1        0.1952
      3 N          60.1412   87.1445    9.5073 N.ar    1  UNL1       -0.1794
      4 C          61.0521   87.2616   10.6933 C.ar    1  UNL1        0.2506
      5 C          61.7470   88.5596   10.9800 C.ar    1  UNL1        0.1930
      6 N          62.6955   88.9717   12.0665 N.ar    1  UNL1       -0.1207
      7 N          63.0656   90.4074   11.8388 N.ar    1  UNL1       -0.0405
      8 N          62.3459   90.8826   10.6115 N.ar    1  UNL1       -0.1092
      9 C          61.5310   89.7406   10.0807 C.ar    1  UNL1        0.1899
     10 N          60.6201   89.6235    8.8948 N.ar    1  UNL1       -0.3094
     11 H          58.5582   87.3564    7.2338 H       1  UNL1        0.1451
     12 H          58.8725   88.9835    6.8318 H       1  UNL1        0.1451
     13 H          60.4783   90.3986    8.3045 H       1  UNL1        0.1701
     14 O          61.2681   86.0806   11.5926 O.3     1  UNL1       -0.4541
     15 C          62.5272   85.2731   11.4807 C.3     1  UNL1        0.2338
     16 C          62.6642   83.9881   12.2424 C.ar    1  UNL1        0.0212
     17 C          62.8063   82.6901   11.5042 C.ar    1  UNL1       -0.0007
     18 C          62.9434   81.4052   12.2659 C.ar    1  UNL1       -0.0002
     19 C          62.9383   81.4183   13.7659 C.ar    1  UNL1       -0.0000
     20 C          62.7962   82.7163   14.5041 C.ar    1  UNL1       -0.0002
     21 C          62.6592   84.0012   13.7423 C.ar    1  UNL1       -0.0007
@<TRIPOS>BOND
     1     1     2    1
     2     2     3   ar
     3     3     4   ar
     4     4    14    1
     5    14    15    1
     6    15    16    1
     7    16    17   ar
     8    17    18   ar
     9    18    19   ar
    10    19    20   ar
    11    20    21   ar
    12     4     5   ar
    13     5     6   ar
    14     6     7   ar
    15     7     8   ar
    16     8     9   ar
    17     9    10   ar
    18    10     2   ar
    19    21    16   ar
    20     9     5    1
    21     1    11    1
    22     1    12    1
    23    10    13    1
@<TRIPOS>MOLECULE
*****
 21 23 0 0 0
SMALL
GASTEIGER

@<TRIPOS>ATOM
      1 N          63.5098   85.7390   15.8118 N.pl3   1  UNL1       -0.3289
      2 C          63.4393   84.5398   14.9134 C.ar    1  UNL1        0.1952
      3 N          64.2068   84.5218   13.6249 N.ar    1  UNL1       -0.1794
      4 C          64.1362   83.3226   12.7265 C.ar    1  UNL1        0.2506
      5 C          63.2980   82.1414   13.1168 C.ar    1  UNL1        0.1930
      6 N          63.0363   80.8289   12.4396 N.ar    1  UNL1       -0.1207
      7 N          62.1069   80.0357   13.3097 N.ar    1  UNL1       -0.0405
      8 N          61.7943   80.8580   14.5247 N.ar    1  UNL1       -0.1092
      9 C          62.5305   82.1595   14.4054 C.ar    1  UNL1        0.1899
     10 N          62.6011   83.3586   15.3037 N.ar    1  UNL1       -0.3094
     11 H          64.0599   86.5142   15.5557 H       1  UNL1        0.1451
     12 H          63.0060   85.7508   16.6576 H       1  UNL1        0.1451
     13 H          62.0973   83.3704   16.1495 H       1  UNL1        0.1701
     14 O          64.9038   83.3047   11.4378 O.3     1  UNL1       -0.4541
     15 C          64.1716   83.2767   10.1291 C.3     1  UNL1        0.2338
     16 C          63.1893   84.3603    9.7959 C.ar    1  UNL1        0.0212
     17 C          63.0318   84.8194    8.3766 C.ar    1  UNL1       -0.0007
     18 C          62.0496   85.9030    8.0435 C.ar    1  UNL1       -0.0002
     19 C          61.2248   86.5276    9.1298 C.ar    1  UNL1       -0.0000
     20 C          61.3824   86.0686   10.5491 C.ar    1  UNL1       -0.0002
     21 C          62.3647   84.9849   10.8821 C.ar    1  UNL1       -0.0007
@<TRIPOS>BOND
     1     1     2    1
     2     2     3   ar
     3     3     4   ar
     4     4    14    1
     5    14    15    1
     6    15    16    1
     7    16    17   ar
     8    17    18   ar
     9    18    19   ar
    10    19    20   ar
    11    20    21   ar
    12     4     5   ar
    13     5     6   ar
    14     6     7   ar
    15     7     8   ar
    16     8     9   ar
    17     9    10   ar
    18    10     2   ar
    19    21    16   ar
    20     9     5    1
    21     1    11    1
    22     1    12    1
    23    10    13    1
@<TRIPOS>MOLECULE
*****
 21 23 0 0 0
SMALL
GASTEIGER

@<TRIPOS>ATOM
      1 N          62.6840   89.2770   15.9422 N.pl3   1  UNL1       -0.3289
      2 C          63.2936   90.0422   14.8051 C.ar    1  UNL1        0.1952
      3 N          62.8647   89.7598   13.3958 N.ar    1  UNL1       -0.1794
      4 C          63.4743   90.5250   12.2586 C.ar    1  UNL1        0.2506
      5 C          64.5127   91.5726   12.5310 C.ar    1  UNL1        0.1930
      6 N          65.2851   92.4808   11.6206 N.ar    1  UNL1       -0.1207
      7 N          66.1913   93.3244   12.4674 N.ar    1  UNL1       -0.0405
      8 N          65.9790   92.9378   13.9011 N.ar    1  UNL1       -0.1092
      9 C          64.9415   91.8551   13.9404 C.ar    1  UNL1        0.1899
     10 N          64.3320   91.0899   15.0774 N.ar    1  UNL1       -0.3094
     11 H          62.0024   88.5894   15.7635 H       1  UNL1        0.1451
     12 H          62.9655   89.4624   16.8672 H       1  UNL1        0.1451
     13 H          64.6134   91.2752   16.0024 H       1  UNL1        0.1701
     14 O          63.0454   90.2426   10.8493 O.3     1  UNL1       -0.4541
     15 C          61.6013   89.9760   10.5439 C.3     1  UNL1        0.2338
     16 C          61.2179   88.7914    9.7075 C.ar    1  UNL1        0.0212
     17 C          60.0606   88.8867    8.7579 C.ar    1  UNL1       -0.0007
     18 C          59.6772   87.7020    7.9215 C.ar    1  UNL1       -0.0002
     19 C          60.4511   86.4220    8.0346 C.ar    1  UNL1       -0.0000
     20 C          61.6083   86.3267    8.9842 C.ar    1  UNL1       -0.0002
     21 C          61.9917   87.5114    9.8206 C.ar    1  UNL1       -0.0007
@<TRIPOS>BOND
     1     1     2    1
     2     2     3   ar
     3     3     4   ar
     4     4    14    1
     5    14    15    1
     6    15    16    1
     7    16    17   ar
     8    17    18   ar
     9    18    19   ar
    10    19    20   ar
    11    20    21   ar
    12     4     5   ar
    13     5     6   ar
    14     6     7   ar
    15     7     8   ar
    16     8     9   ar
    17     9    10   ar
    18    10     2   ar
    19    21    16   ar
    20     9     5    1
    21     1    11    1
    22     1    12    1
    23    10    13    1
