@<TRIPOS>MOLECULE
*****
 34 38 0 0 0
SMALL
GASTEIGER

@<TRIPOS>ATOM
      1 N          64.2550   89.7263   14.5366 N.3     1  UNL1       -0.2688
      2 C          65.4501   90.6191   14.6934 C.3     1  UNL1        0.0745
      3 C          65.7824   91.6213   13.6280 C.3     1  UNL1        0.0449
      4 C          64.9197   91.7308   12.4058 C.3     1  UNL1        0.1372
      5 C          63.7246   90.8380   12.2490 C.3     1  UNL1        0.0449
      6 C          63.3923   89.8358   13.3144 C.3     1  UNL1        0.0745
      7 C          64.1539   91.9540   11.1355 C.2     1  UNL1        0.2458
      8 O          62.9213   91.2141   10.7075 O.2     1  UNL1       -0.2729
      9 N          64.8372   93.0470   10.3682 N.am    1  UNL1       -0.2379
     10 C          66.0253   93.4992   11.1645 C.2     1  UNL1        0.3138
     11 O          66.9926   94.5759   10.7706 O.2     1  UNL1       -0.2518
     12 N          66.0763   92.6858   12.4237 N.am    1  UNL1       -0.2380
     13 H          64.5554   93.4047    9.4954 H       1  UNL1        0.1591
     14 C          67.1035   92.8062   13.5101 C.ar    1  UNL1        0.0556
     15 C          66.8769   93.7477   14.6557 C.ar    1  UNL1        0.0150
     16 C          67.9041   93.8680   15.7421 C.ar    1  UNL1        0.0013
     17 C          69.1580   93.0469   15.6830 C.ar    1  UNL1        0.0001
     18 C          69.3847   92.1054   14.5375 C.ar    1  UNL1        0.0013
     19 C          68.3575   91.9851   13.4511 C.ar    1  UNL1        0.0150
     20 C          63.9225   88.7240   15.6020 C.3     1  UNL1        0.0991
     21 C          63.1726   84.4275   14.4940 C.ar    1  UNL1        0.0000
     22 C          62.9494   84.8885   15.9039 C.ar    1  UNL1       -0.0003
     23 C          63.1994   86.3206   16.2732 C.ar    1  UNL1       -0.0029
     24 C          63.6726   87.2919   15.2326 C.ar    1  UNL1       -0.0061
     25 C          63.8957   86.8310   13.8228 C.ar    1  UNL1       -0.0029
     26 C          63.6457   85.3988   13.4534 C.ar    1  UNL1       -0.0003
     27 C          61.3380   80.9384   14.0355 C.ar    1  UNL1        0.0684
     28 C          62.4226   80.1311   13.3860 C.ar    1  UNL1        0.0103
     29 C          63.7572   80.7558   13.1059 C.ar    1  UNL1        0.0007
     30 C          64.0072   82.1881   13.4752 C.ar    1  UNL1        0.0000
     31 C          62.9226   82.9954   14.1247 C.ar    1  UNL1        0.0007
     32 C          61.5880   82.3706   14.4048 C.ar    1  UNL1        0.0103
     33 N          58.6688   79.6889   14.5959 N.1     1  UNL1       -0.1908
     34 C          60.0034   80.3137   14.3157 C.1     1  UNL1        0.1004
@<TRIPOS>BOND
     1    33    34    3
     2    34    27    1
     3    27    28   ar
     4    28    29   ar
     5    29    30   ar
     6    30    31   ar
     7    31    21    1
     8    21    22   ar
     9    22    23   ar
    10    23    24   ar
    11    24    20    1
    12    20     1    1
    13     1     2    1
    14     2     3    1
    15     3     4    1
    16     4     5    1
    17     5     6    1
    18     4     7    1
    19     7     8    2
    20     7     9   am
    21     9    10   am
    22    10    11    2
    23    10    12   am
    24    12    14    1
    25    14    15   ar
    26    15    16   ar
    27    16    17   ar
    28    17    18   ar
    29    18    19   ar
    30    24    25   ar
    31    25    26   ar
    32    31    32   ar
    33    32    27   ar
    34    26    21   ar
    35     6     1    1
    36    19    14   ar
    37    12     4    1
    38     9    13    1
@<TRIPOS>MOLECULE
*****
 34 38 0 0 0
SMALL
GASTEIGER

@<TRIPOS>ATOM
      1 N          63.4918   90.0886   12.6591 N.3     1  UNL1       -0.2688
      2 C          64.5824   90.9289   12.0638 C.3     1  UNL1        0.0745
      3 C          65.4266   91.7983   12.9478 C.3     1  UNL1        0.0449
      4 C          65.1801   91.8274   14.4271 C.3     1  UNL1        0.1372
      5 C          64.0894   90.9871   15.0224 C.3     1  UNL1        0.0449
      6 C          63.2453   90.1178   14.1384 C.3     1  UNL1        0.0745
      7 C          65.0517   91.9596   15.9158 C.2     1  UNL1        0.2458
      8 O          64.0566   91.2455   16.7818 O.2     1  UNL1       -0.2729
      9 N          66.0931   92.9312   16.3865 N.am    1  UNL1       -0.2379
     10 C          66.8652   93.3995   15.1886 C.2     1  UNL1        0.3138
     11 O          68.0018   94.3781   15.1998 O.2     1  UNL1       -0.2518
     12 N          66.3009   92.7173   13.9777 N.am    1  UNL1       -0.2380
     13 H          66.2436   93.2122   17.3179 H       1  UNL1        0.1591
     14 C          66.7742   92.8940   12.5654 C.ar    1  UNL1        0.0556
     15 C          67.8168   91.9738   12.0031 C.ar    1  UNL1        0.0150
     16 C          68.2901   92.1506   10.5907 C.ar    1  UNL1        0.0013
     17 C          67.7208   93.2475    9.7406 C.ar    1  UNL1        0.0001
     18 C          66.6782   94.1678   10.3030 C.ar    1  UNL1        0.0013
     19 C          66.2050   93.9910   11.7153 C.ar    1  UNL1        0.0150
     20 C          62.6476   89.2192   11.7750 C.3     1  UNL1        0.0991
     21 C          62.6133   84.7596   12.3759 C.ar    1  UNL1        0.0000
     22 C          61.7631   85.3789   11.3064 C.ar    1  UNL1       -0.0003
     23 C          61.7745   86.8653   11.1061 C.ar    1  UNL1       -0.0029
     24 C          62.6362   87.7327   11.9753 C.ar    1  UNL1       -0.0061
     25 C          63.4863   87.1134   13.0448 C.ar    1  UNL1       -0.0029
     26 C          63.4749   85.6268   13.2450 C.ar    1  UNL1       -0.0003
     27 C          62.7561   80.8701   11.6006 C.ar    1  UNL1        0.0684
     28 C          62.5790   80.3000   12.9767 C.ar    1  UNL1        0.0103
     29 C          62.4132   81.2165   14.1525 C.ar    1  UNL1        0.0007
     30 C          62.4246   82.7031   13.9523 C.ar    1  UNL1        0.0000
     31 C          62.6018   83.2731   12.5762 C.ar    1  UNL1        0.0007
     32 C          62.7676   82.3566   11.4003 C.ar    1  UNL1        0.0103
     33 N          63.0876   79.0371    9.2489 N.1     1  UNL1       -0.1908
     34 C          62.9219   79.9536   10.4248 C.1     1  UNL1        0.1004
@<TRIPOS>BOND
     1    33    34    3
     2    34    27    1
     3    27    28   ar
     4    28    29   ar
     5    29    30   ar
     6    30    31   ar
     7    31    21    1
     8    21    22   ar
     9    22    23   ar
    10    23    24   ar
    11    24    20    1
    12    20     1    1
    13     1     2    1
    14     2     3    1
    15     3     4    1
    16     4     5    1
    17     5     6    1
    18     4     7    1
    19     7     8    2
    20     7     9   am
    21     9    10   am
    22    10    11    2
    23    10    12   am
    24    12    14    1
    25    14    15   ar
    26    15    16   ar
    27    16    17   ar
    28    17    18   ar
    29    18    19   ar
    30    24    25   ar
    31    25    26   ar
    32    31    32   ar
    33    32    27   ar
    34    26    21   ar
    35     6     1    1
    36    19    14   ar
    37    12     4    1
    38     9    13    1
@<TRIPOS>MOLECULE
*****
 34 38 0 0 0
SMALL
GASTEIGER

@<TRIPOS>ATOM
      1 N          64.3105   89.6627   14.4396 N.3     1  UNL1       -0.2688
      2 C          65.4834   90.5800   14.6208 C.3     1  UNL1        0.0745
      3 C          65.8083   91.5988   13.5690 C.3     1  UNL1        0.0449
      4 C          64.9602   91.7004   12.3359 C.3     1  UNL1        0.1372
      5 C          63.7873   90.7832   12.1546 C.3     1  UNL1        0.0449
      6 C          63.4625   89.7643   13.2065 C.3     1  UNL1        0.0745
      7 C          64.2072   91.9183   11.0570 C.2     1  UNL1        0.2458
      8 O          62.9972   91.1555   10.6054 O.2     1  UNL1       -0.2729
      9 N          64.8768   93.0329   10.3089 N.am    1  UNL1       -0.2379
     10 C          66.0436   93.5038   11.1255 C.2     1  UNL1        0.3138
     11 O          66.9923   94.6048   10.7546 O.2     1  UNL1       -0.2518
     12 N          66.0952   92.6804   12.3782 N.am    1  UNL1       -0.2380
     13 H          64.5992   93.3922    9.4354 H       1  UNL1        0.1591
     14 C          67.1044   92.8134   13.4799 C.ar    1  UNL1        0.0556
     15 C          68.3763   92.0195   13.4318 C.ar    1  UNL1        0.0150
     16 C          69.3855   92.1526   14.5336 C.ar    1  UNL1        0.0013
     17 C          69.1229   93.0795   15.6834 C.ar    1  UNL1        0.0001
     18 C          67.8511   93.8733   15.7314 C.ar    1  UNL1        0.0013
     19 C          66.8419   93.7403   14.6297 C.ar    1  UNL1        0.0150
     20 C          63.9856   88.6438   15.4914 C.3     1  UNL1        0.0991
     21 C          63.0011   84.4171   14.3017 C.ar    1  UNL1        0.0000
     22 C          63.5009   85.3885   13.2738 C.ar    1  UNL1       -0.0003
     23 C          63.8291   86.7974   13.6704 C.ar    1  UNL1       -0.0029
     24 C          63.6575   87.2349   15.0949 C.ar    1  UNL1       -0.0061
     25 C          63.1577   86.2635   16.1228 C.ar    1  UNL1       -0.0029
     26 C          62.8295   84.8546   15.7261 C.ar    1  UNL1       -0.0003
     27 C          62.6945   81.1057   12.1359 C.ar    1  UNL1        0.0684
     28 C          62.0167   80.1904   13.1120 C.ar    1  UNL1        0.0103
     29 C          61.6670   80.6839   14.4846 C.ar    1  UNL1        0.0007
     30 C          61.9951   82.0929   14.8812 C.ar    1  UNL1        0.0000
     31 C          62.6730   83.0082   13.9051 C.ar    1  UNL1        0.0007
     32 C          63.0227   82.5146   12.5325 C.ar    1  UNL1        0.0103
     33 N          63.3939   80.1186    9.3906 N.1     1  UNL1       -0.1908
     34 C          63.0442   80.6122   10.7633 C.1     1  UNL1        0.1004
@<TRIPOS>BOND
     1    33    34    3
     2    34    27    1
     3    27    28   ar
     4    28    29   ar
     5    29    30   ar
     6    30    31   ar
     7    31    21    1
     8    21    22   ar
     9    22    23   ar
    10    23    24   ar
    11    24    20    1
    12    20     1    1
    13     1     2    1
    14     2     3    1
    15     3     4    1
    16     4     5    1
    17     5     6    1
    18     4     7    1
    19     7     8    2
    20     7     9   am
    21     9    10   am
    22    10    11    2
    23    10    12   am
    24    12    14    1
    25    14    15   ar
    26    15    16   ar
    27    16    17   ar
    28    17    18   ar
    29    18    19   ar
    30    24    25   ar
    31    25    26   ar
    32    31    32   ar
    33    32    27   ar
    34    26    21   ar
    35     6     1    1
    36    19    14   ar
    37    12     4    1
    38     9    13    1
@<TRIPOS>MOLECULE
*****
 34 38 0 0 0
SMALL
GASTEIGER

@<TRIPOS>ATOM
      1 N          63.7076   86.8362   14.6000 N.3     1  UNL1       -0.2688
      2 C          63.2574   86.6294   13.1843 C.3     1  UNL1        0.0745
      3 C          63.2202   85.2470   12.6035 C.3     1  UNL1        0.0449
      4 C          63.6333   84.0713   13.4384 C.3     1  UNL1        0.1372
      5 C          64.0836   84.2781   14.8542 C.3     1  UNL1        0.0449
      6 C          64.1207   85.6606   15.4350 C.3     1  UNL1        0.0745
      7 C          64.0147   82.8061   14.1483 C.2     1  UNL1        0.2458
      8 O          64.5003   82.7014   15.5637 O.2     1  UNL1       -0.2729
      9 N          63.8253   81.6641   13.1943 N.am    1  UNL1       -0.2379
     10 C          63.3268   82.2235   11.8948 C.2     1  UNL1        0.3138
     11 O          63.0038   81.4339   10.6612 O.2     1  UNL1       -0.2518
     12 N          63.2082   83.7112   12.0457 N.am    1  UNL1       -0.2380
     13 H          63.9979   80.7142   13.3872 H       1  UNL1        0.1591
     14 C          62.7456   84.6704   10.9894 C.ar    1  UNL1        0.0556
     15 C          61.5704   85.5650   11.2513 C.ar    1  UNL1        0.0150
     16 C          61.1079   86.5242   10.1949 C.ar    1  UNL1        0.0013
     17 C          61.8205   86.5888    8.8765 C.ar    1  UNL1        0.0001
     18 C          62.9956   85.6942    8.6146 C.ar    1  UNL1        0.0013
     19 C          63.4582   84.7350    9.6710 C.ar    1  UNL1        0.0150
     20 C          63.7448   88.2187   15.1809 C.3     1  UNL1        0.0991
     21 C          65.3986   91.6326   12.7602 C.ar    1  UNL1        0.0000
     22 C          64.1913   90.8857   12.2761 C.ar    1  UNL1       -0.0003
     23 C          63.6400   89.7477   13.0830 C.ar    1  UNL1       -0.0029
     24 C          64.2961   89.3567   14.3740 C.ar    1  UNL1       -0.0061
     25 C          65.5035   90.1036   14.8581 C.ar    1  UNL1       -0.0029
     26 C          66.0547   91.2416   14.0511 C.ar    1  UNL1       -0.0003
     27 C          67.2925   93.6318    9.9024 C.ar    1  UNL1        0.0684
     28 C          67.0525   95.0465   10.3394 C.ar    1  UNL1        0.0103
     29 C          66.2613   95.3233   11.5833 C.ar    1  UNL1        0.0007
     30 C          65.7100   94.1853   12.3902 C.ar    1  UNL1        0.0000
     31 C          65.9499   92.7706   11.9533 C.ar    1  UNL1        0.0007
     32 C          66.7412   92.4938   10.7093 C.ar    1  UNL1        0.0103
     33 N          68.8751   93.0782    7.4146 N.1     1  UNL1       -0.1908
     34 C          68.0837   93.3550    8.6586 C.1     1  UNL1        0.1004
@<TRIPOS>BOND
     1    33    34    3
     2    34    27    1
     3    27    28   ar
     4    28    29   ar
     5    29    30   ar
     6    30    31   ar
     7    31    21    1
     8    21    22   ar
     9    22    23   ar
    10    23    24   ar
    11    24    20    1
    12    20     1    1
    13     1     2    1
    14     2     3    1
    15     3     4    1
    16     4     5    1
    17     5     6    1
    18     4     7    1
    19     7     8    2
    20     7     9   am
    21     9    10   am
    22    10    11    2
    23    10    12   am
    24    12    14    1
    25    14    15   ar
    26    15    16   ar
    27    16    17   ar
    28    17    18   ar
    29    18    19   ar
    30    24    25   ar
    31    25    26   ar
    32    31    32   ar
    33    32    27   ar
    34    26    21   ar
    35     6     1    1
    36    19    14   ar
    37    12     4    1
    38     9    13    1
@<TRIPOS>MOLECULE
*****
 34 38 0 0 0
SMALL
GASTEIGER

@<TRIPOS>ATOM
      1 N          62.1136   86.5190   11.1338 N.3     1  UNL1       -0.2688
      2 C          62.4177   86.2580   12.5792 C.3     1  UNL1        0.0745
      3 C          62.9261   84.9134   13.0077 C.3     1  UNL1        0.0449
      4 C          63.1303   83.8299   11.9908 C.3     1  UNL1        0.1372
      5 C          62.8262   84.0909   10.5453 C.3     1  UNL1        0.0449
      6 C          62.3179   85.4354   10.1168 C.3     1  UNL1        0.0745
      7 C          63.3825   82.6553   11.0925 C.2     1  UNL1        0.2458
      8 O          63.1706   82.6191    9.6080 O.2     1  UNL1       -0.2729
      9 N          63.8838   81.5232   11.9394 N.am    1  UNL1       -0.2379
     10 C          63.9414   81.9981   13.3611 C.2     1  UNL1        0.3138
     11 O          64.3865   81.1895   14.5434 O.2     1  UNL1       -0.2518
     12 N          63.4758   83.4237   13.3929 N.am    1  UNL1       -0.2380
     13 H          64.1315   80.6260   11.6185 H       1  UNL1        0.1591
     14 C          63.3735   84.2908   14.6125 C.ar    1  UNL1        0.0556
     15 C          62.1461   84.2334   15.4729 C.ar    1  UNL1        0.0150
     16 C          62.0439   85.1007   16.6925 C.ar    1  UNL1        0.0013
     17 C          63.1691   86.0253   17.0518 C.ar    1  UNL1        0.0001
     18 C          64.3964   86.0827   16.1914 C.ar    1  UNL1        0.0013
     19 C          64.4986   85.2155   14.9718 C.ar    1  UNL1        0.0150
     20 C          61.6053   87.8636   10.7052 C.3     1  UNL1        0.0991
     21 C          64.1418   91.5292   11.3214 C.ar    1  UNL1        0.0000
     22 C          63.4603   91.3014   10.0047 C.ar    1  UNL1       -0.0003
     23 C          62.6147   90.0796    9.7993 C.ar    1  UNL1       -0.0029
     24 C          62.4508   89.0854   10.9106 C.ar    1  UNL1       -0.0061
     25 C          63.1324   89.3132   12.2272 C.ar    1  UNL1       -0.0029
     26 C          63.9779   90.5351   12.4326 C.ar    1  UNL1       -0.0003
     27 C          66.0495   94.9338   10.6009 C.ar    1  UNL1        0.0684
     28 C          66.6784   95.1947   11.9375 C.ar    1  UNL1        0.0103
     29 C          66.4618   94.2337   13.0687 C.ar    1  UNL1        0.0007
     30 C          65.6162   93.0118   12.8633 C.ar    1  UNL1        0.0000
     31 C          64.9873   92.7510   11.5268 C.ar    1  UNL1        0.0007
     32 C          65.2040   93.7120   10.3955 C.ar    1  UNL1        0.0103
     33 N          66.4827   96.8558    8.3386 N.1     1  UNL1       -0.1908
     34 C          66.2661   95.8948    9.4698 C.1     1  UNL1        0.1004
@<TRIPOS>BOND
     1    33    34    3
     2    34    27    1
     3    27    28   ar
     4    28    29   ar
     5    29    30   ar
     6    30    31   ar
     7    31    21    1
     8    21    22   ar
     9    22    23   ar
    10    23    24   ar
    11    24    20    1
    12    20     1    1
    13     1     2    1
    14     2     3    1
    15     3     4    1
    16     4     5    1
    17     5     6    1
    18     4     7    1
    19     7     8    2
    20     7     9   am
    21     9    10   am
    22    10    11    2
    23    10    12   am
    24    12    14    1
    25    14    15   ar
    26    15    16   ar
    27    16    17   ar
    28    17    18   ar
    29    18    19   ar
    30    24    25   ar
    31    25    26   ar
    32    31    32   ar
    33    32    27   ar
    34    26    21   ar
    35     6     1    1
    36    19    14   ar
    37    12     4    1
    38     9    13    1
@<TRIPOS>MOLECULE
*****
 34 38 0 0 0
SMALL
GASTEIGER

@<TRIPOS>ATOM
      1 N          62.1470   86.2805   10.9557 N.3     1  UNL1       -0.2688
      2 C          62.4566   86.0509   12.4053 C.3     1  UNL1        0.0745
      3 C          62.9110   84.6991   12.8701 C.3     1  UNL1        0.0449
      4 C          63.0558   83.5769   11.8854 C.3     1  UNL1        0.1372
      5 C          62.7462   83.8065   10.4358 C.3     1  UNL1        0.0449
      6 C          62.2918   85.1583    9.9709 C.3     1  UNL1        0.0745
      7 C          63.2459   82.3654   11.0216 C.2     1  UNL1        0.2458
      8 O          63.0150   82.2930    9.5412 O.2     1  UNL1       -0.2729
      9 N          63.7074   81.2389   11.8981 N.am    1  UNL1       -0.2379
     10 C          63.8026   81.7543   13.3036 C.2     1  UNL1        0.3138
     11 O          64.2261   80.9636   14.5058 O.2     1  UNL1       -0.2518
     12 N          63.3998   83.1992   13.2958 N.am    1  UNL1       -0.2380
     13 H          63.9120   80.3223   11.6027 H       1  UNL1        0.1591
     14 C          63.3499   84.1071   14.4887 C.ar    1  UNL1        0.0556
     15 C          62.1225   84.1469   15.3501 C.ar    1  UNL1        0.0150
     16 C          62.0727   85.0549   16.5431 C.ar    1  UNL1        0.0013
     17 C          63.2502   85.9229   16.8747 C.ar    1  UNL1        0.0001
     18 C          64.4775   85.8831   16.0134 C.ar    1  UNL1        0.0013
     19 C          64.5274   84.9752   14.8204 C.ar    1  UNL1        0.0150
     20 C          61.6926   87.6324   10.4907 C.3     1  UNL1        0.0991
     21 C          64.1374   91.2840   11.4595 C.ar    1  UNL1        0.0000
     22 C          63.9560   90.2081   12.4889 C.ar    1  UNL1       -0.0003
     23 C          63.1411   88.9909   12.1660 C.ar    1  UNL1       -0.0029
     24 C          62.5075   88.8496   10.8136 C.ar    1  UNL1       -0.0061
     25 C          62.6889   89.9254    9.7843 C.ar    1  UNL1       -0.0029
     26 C          63.5039   91.1427   10.1073 C.ar    1  UNL1       -0.0003
     27 C          66.5070   93.8018   13.4076 C.ar    1  UNL1        0.0684
     28 C          66.5822   94.9356   12.4284 C.ar    1  UNL1        0.0103
     29 C          65.8424   94.8522   11.1262 C.ar    1  UNL1        0.0007
     30 C          65.0274   93.6349   10.8032 C.ar    1  UNL1        0.0000
     31 C          64.9523   92.5012   11.7825 C.ar    1  UNL1        0.0007
     32 C          65.6921   92.5847   13.0847 C.ar    1  UNL1        0.0103
     33 N          67.9867   93.9687   16.0120 N.1     1  UNL1       -0.1908
     34 C          67.2468   93.8853   14.7098 C.1     1  UNL1        0.1004
@<TRIPOS>BOND
     1    33    34    3
     2    34    27    1
     3    27    28   ar
     4    28    29   ar
     5    29    30   ar
     6    30    31   ar
     7    31    21    1
     8    21    22   ar
     9    22    23   ar
    10    23    24   ar
    11    24    20    1
    12    20     1    1
    13     1     2    1
    14     2     3    1
    15     3     4    1
    16     4     5    1
    17     5     6    1
    18     4     7    1
    19     7     8    2
    20     7     9   am
    21     9    10   am
    22    10    11    2
    23    10    12   am
    24    12    14    1
    25    14    15   ar
    26    15    16   ar
    27    16    17   ar
    28    17    18   ar
    29    18    19   ar
    30    24    25   ar
    31    25    26   ar
    32    31    32   ar
    33    32    27   ar
    34    26    21   ar
    35     6     1    1
    36    19    14   ar
    37    12     4    1
    38     9    13    1
