@<TRIPOS>MOLECULE
*****
 33 36 0 0 0
SMALL
GASTEIGER

@<TRIPOS>ATOM
      1 C          62.3603   88.5950   11.5509 C.ar    1  UNL1        0.1483
      2 C          62.6036   89.8431   10.7553 C.ar    1  UNL1        0.0374
      3 C          63.4384   90.9485   11.3307 C.ar    1  UNL1        0.0023
      4 C          64.0300   90.8059   12.7017 C.ar    1  UNL1        0.0211
      5 C          63.7867   89.5578   13.4974 C.ar    1  UNL1        0.1382
      6 C          62.9519   88.4523   12.9220 C.ar    1  UNL1        0.0740
      7 O          64.3782   89.4152   14.8684 O.3     1  UNL1       -0.4716
      8 C          63.5614   89.7627   16.0776 C.3     1  UNL1        0.2525
      9 O          61.5254   87.4896   10.9756 O.3     1  UNL1       -0.4533
     10 C          63.4990   82.7416   12.6525 C.ar    1  UNL1        0.1402
     11 C          62.8393   83.8969   13.3454 C.ar    1  UNL1        0.0371
     12 C          62.4013   85.0944   12.5555 C.ar    1  UNL1        0.0077
     13 C          62.6231   85.1368   11.0726 C.ar    1  UNL1        0.0524
     14 C          62.1851   86.3344   10.2826 C.ar    1  UNL1        0.1482
     15 C          62.4069   86.3767    8.7997 C.ar    1  UNL1        0.0581
     16 C          63.0666   85.2214    8.1067 C.ar    1  UNL1        0.1020
     17 N          63.5045   84.0239    8.8967 N.ar    1  UNL1       -0.2435
     18 C          63.2828   83.9815   10.3796 C.ar    1  UNL1        0.0873
     19 C          63.7207   82.7840   11.1696 C.ar    1  UNL1        0.0561
     20 C          62.9410   80.4859   13.8146 C.3     1  UNL1        0.2525
     21 O          63.9369   81.5440   13.4424 O.3     1  UNL1       -0.4714
     22 C          64.8648   91.9114   13.2770 C.3     1  UNL1        0.1146
     23 C          65.8031   92.6798   12.3944 C.2     1  UNL1        0.2307
     24 O          67.1309   93.1324   12.9256 O.2     1  UNL1       -0.2744
     25 N          65.4137   92.9956   10.9807 N.am    1  UNL1       -0.2815
     26 H          64.5422   92.6985   10.6321 H       1  UNL1        0.1549
     27 C          66.3520   93.7640   10.0981 C.ar    1  UNL1        0.0847
     28 C          66.1578   95.1722    9.6192 C.ar    1  UNL1        0.1110
     29 N          67.3351   95.5377    8.7645 N.ar    1  UNL1       -0.2464
     30 C          67.5524   96.8543    8.0795 C.3     1  UNL1        0.1538
     31 N          68.2570   94.3554    8.7153 N.ar    1  UNL1       -0.1723
     32 C          67.6494   93.2592    9.5394 C.ar    1  UNL1        0.0938
     33 C          68.2361   91.8974    9.7653 C.3     1  UNL1        0.0553
@<TRIPOS>BOND
     1    20    21    1
     2    21    10    1
     3    10    11   ar
     4    11    12   ar
     5    12    13   ar
     6    13    14   ar
     7    14     9    1
     8     9     1    1
     9     1     2   ar
    10     2     3   ar
    11     3     4   ar
    12     4    22    1
    13    22    23    1
    14    23    24    2
    15    23    25   am
    16    25    27    1
    17    27    28   ar
    18    28    29   ar
    19    29    30    1
    20    29    31   ar
    21    31    32   ar
    22    32    33    1
    23     4     5   ar
    24     5     7    1
    25     7     8    1
    26     5     6   ar
    27    14    15   ar
    28    15    16   ar
    29    16    17   ar
    30    17    18   ar
    31    18    19   ar
    32    19    10   ar
    33    18    13   ar
    34     6     1   ar
    35    32    27   ar
    36    25    26    1
@<TRIPOS>MOLECULE
*****
 33 36 0 0 0
SMALL
GASTEIGER

@<TRIPOS>ATOM
      1 C          63.4061   87.3961   12.7683 C.ar    1  UNL1        0.1483
      2 C          64.2411   87.5933   13.9987 C.ar    1  UNL1        0.0374
      3 C          64.6160   88.9781   14.4367 C.ar    1  UNL1        0.0023
      4 C          64.1558   90.1657   13.6443 C.ar    1  UNL1        0.0211
      5 C          63.3208   89.9685   12.4139 C.ar    1  UNL1        0.1382
      6 C          62.9459   88.5838   11.9759 C.ar    1  UNL1        0.0740
      7 O          62.8607   91.1561   11.6215 O.3     1  UNL1       -0.4716
      8 C          62.7467   91.0633   10.1287 C.3     1  UNL1        0.2525
      9 O          63.0312   86.0114   12.3303 O.3     1  UNL1       -0.4533
     10 C          62.8392   80.6186   11.9683 C.ar    1  UNL1        0.1402
     11 C          62.9263   81.7262   10.9605 C.ar    1  UNL1        0.0371
     12 C          62.9613   83.1546   11.4171 C.ar    1  UNL1        0.0077
     13 C          62.9092   83.4754   12.8814 C.ar    1  UNL1        0.0524
     14 C          62.9441   84.9038   13.3380 C.ar    1  UNL1        0.1482
     15 C          62.8920   85.2246   14.8024 C.ar    1  UNL1        0.0581
     16 C          62.8050   84.1169   15.8102 C.ar    1  UNL1        0.1020
     17 N          62.7700   82.6885   15.3536 N.ar    1  UNL1       -0.2435
     18 C          62.8221   82.3678   13.8892 C.ar    1  UNL1        0.0873
     19 C          62.7871   80.9394   13.4326 C.ar    1  UNL1        0.0561
     20 C          62.8062   78.8710   10.0461 C.3     1  UNL1        0.2525
     21 O          62.8043   79.1902   11.5117 O.3     1  UNL1       -0.4714
     22 C          64.5307   91.5505   14.0823 C.3     1  UNL1        0.1146
     23 C          65.4887   92.3629   13.2624 C.2     1  UNL1        0.2307
     24 O          66.8332   92.7249   13.8201 O.2     1  UNL1       -0.2744
     25 N          65.1020   92.8133   11.8849 N.am    1  UNL1       -0.2815
     26 H          64.2195   92.5757   11.5189 H       1  UNL1        0.1549
     27 C          66.0600   93.6257   11.0650 C.ar    1  UNL1        0.0847
     28 C          65.9283   95.0850   10.7441 C.ar    1  UNL1        0.1110
     29 N          67.1048   95.4827    9.9027 N.ar    1  UNL1       -0.2464
     30 C          67.3750   96.8533    9.3564 C.3     1  UNL1        0.1538
     31 N          67.9636   94.2691    9.7037 N.ar    1  UNL1       -0.1723
     32 C          67.3180   93.1214   10.4220 C.ar    1  UNL1        0.0938
     33 C          67.8387   91.7162   10.4861 C.3     1  UNL1        0.0553
@<TRIPOS>BOND
     1    20    21    1
     2    21    10    1
     3    10    11   ar
     4    11    12   ar
     5    12    13   ar
     6    13    14   ar
     7    14     9    1
     8     9     1    1
     9     1     2   ar
    10     2     3   ar
    11     3     4   ar
    12     4    22    1
    13    22    23    1
    14    23    24    2
    15    23    25   am
    16    25    27    1
    17    27    28   ar
    18    28    29   ar
    19    29    30    1
    20    29    31   ar
    21    31    32   ar
    22    32    33    1
    23     4     5   ar
    24     5     7    1
    25     7     8    1
    26     5     6   ar
    27    14    15   ar
    28    15    16   ar
    29    16    17   ar
    30    17    18   ar
    31    18    19   ar
    32    19    10   ar
    33    18    13   ar
    34     6     1   ar
    35    32    27   ar
    36    25    26    1
@<TRIPOS>MOLECULE
*****
 33 36 0 0 0
SMALL
GASTEIGER

@<TRIPOS>ATOM
      1 C          63.7313   89.9621   15.6239 C.ar    1  UNL1        0.1483
      2 C          62.9893   89.5653   16.8657 C.ar    1  UNL1        0.0374
      3 C          62.8454   88.1155   17.2224 C.ar    1  UNL1        0.0023
      4 C          63.4436   87.0624   16.3375 C.ar    1  UNL1        0.0211
      5 C          64.1857   87.4591   15.0957 C.ar    1  UNL1        0.1382
      6 C          64.3295   88.9090   14.7389 C.ar    1  UNL1        0.0740
      7 O          64.7838   86.4061   14.2108 O.3     1  UNL1       -0.4716
      8 C          66.0142   85.6683   14.6490 C.3     1  UNL1        0.2525
      9 O          63.8752   91.4119   15.2672 O.3     1  UNL1       -0.4533
     10 C          66.5837   92.7917   10.7939 C.ar    1  UNL1        0.1402
     11 C          65.2234   92.2136   11.0494 C.ar    1  UNL1        0.0371
     12 C          64.7740   91.9464   12.4553 C.ar    1  UNL1        0.0077
     13 C          65.6849   92.2572   13.6057 C.ar    1  UNL1        0.0524
     14 C          65.2355   91.9900   15.0117 C.ar    1  UNL1        0.1482
     15 C          66.1464   92.3008   16.1621 C.ar    1  UNL1        0.0581
     16 C          67.5068   92.8790   15.9067 C.ar    1  UNL1        0.1020
     17 N          67.9562   93.1462   14.5007 N.ar    1  UNL1       -0.2435
     18 C          67.0452   92.8353   13.3503 C.ar    1  UNL1        0.0873
     19 C          67.4946   93.1025   11.9443 C.ar    1  UNL1        0.0561
     20 C          67.6815   94.3669    9.0437 C.3     1  UNL1        0.2525
     21 O          67.0331   93.0589    9.3880 O.3     1  UNL1       -0.4714
     22 C          63.2997   85.6126   16.6943 C.3     1  UNL1        0.1146
     23 C          62.8295   84.6296   15.6635 C.2     1  UNL1        0.2307
     24 O          61.3808   84.5828   15.2776 O.2     1  UNL1       -0.2744
     25 N          63.8081   83.6935   15.0184 N.am    1  UNL1       -0.2815
     26 H          64.7589   83.7242   15.2717 H       1  UNL1        0.1549
     27 C          63.3379   82.7105   13.9876 C.ar    1  UNL1        0.0847
     28 C          63.2002   81.2293   14.1799 C.ar    1  UNL1        0.1110
     29 N          62.7000   80.6394   12.8945 N.ar    1  UNL1       -0.2464
     30 C          62.4203   79.1878   12.6405 C.3     1  UNL1        0.1538
     31 N          62.5286   81.7562   11.9079 N.ar    1  UNL1       -0.1723
     32 C          62.9228   83.0362   12.5834 C.ar    1  UNL1        0.0938
     33 C          62.9052   84.4020   11.9636 C.3     1  UNL1        0.0553
@<TRIPOS>BOND
     1    20    21    1
     2    21    10    1
     3    10    11   ar
     4    11    12   ar
     5    12    13   ar
     6    13    14   ar
     7    14     9    1
     8     9     1    1
     9     1     2   ar
    10     2     3   ar
    11     3     4   ar
    12     4    22    1
    13    22    23    1
    14    23    24    2
    15    23    25   am
    16    25    27    1
    17    27    28   ar
    18    28    29   ar
    19    29    30    1
    20    29    31   ar
    21    31    32   ar
    22    32    33    1
    23     4     5   ar
    24     5     7    1
    25     7     8    1
    26     5     6   ar
    27    14    15   ar
    28    15    16   ar
    29    16    17   ar
    30    17    18   ar
    31    18    19   ar
    32    19    10   ar
    33    18    13   ar
    34     6     1   ar
    35    32    27   ar
    36    25    26    1
@<TRIPOS>MOLECULE
*****
 33 36 0 0 0
SMALL
GASTEIGER

@<TRIPOS>ATOM
      1 C          63.3945   87.4285   13.2219 C.ar    1  UNL1        0.1483
      2 C          64.2528   87.6286   14.4357 C.ar    1  UNL1        0.0374
      3 C          64.7830   88.9932   14.7627 C.ar    1  UNL1        0.0023
      4 C          64.4549   90.1576   13.8759 C.ar    1  UNL1        0.0211
      5 C          63.5965   89.9575   12.6621 C.ar    1  UNL1        0.1382
      6 C          63.0664   88.5930   12.3350 C.ar    1  UNL1        0.0740
      7 O          63.2684   91.1220   11.7753 O.3     1  UNL1       -0.4716
      8 C          62.8189   90.8865   10.3637 C.3     1  UNL1        0.2525
      9 O          62.8644   86.0640   12.8949 O.3     1  UNL1       -0.4533
     10 C          60.0395   87.3144    8.4557 C.ar    1  UNL1        0.1402
     11 C          60.0217   87.8062    9.8726 C.ar    1  UNL1        0.0371
     12 C          60.9693   87.2255   10.8800 C.ar    1  UNL1        0.0077
     13 C          61.9346   86.1529   10.4705 C.ar    1  UNL1        0.0524
     14 C          62.8822   85.5722   11.4779 C.ar    1  UNL1        0.1482
     15 C          63.8475   84.4997   11.0684 C.ar    1  UNL1        0.0581
     16 C          63.8653   84.0078    9.6514 C.ar    1  UNL1        0.1020
     17 N          62.9178   84.5885    8.6440 N.ar    1  UNL1       -0.2435
     18 C          61.9524   85.6611    9.0536 C.ar    1  UNL1        0.0873
     19 C          61.0048   86.2419    8.0462 C.ar    1  UNL1        0.0561
     20 C          59.3432   89.2616    6.8830 C.3     1  UNL1        0.2525
     21 O          59.0920   87.8952    7.4483 O.3     1  UNL1       -0.4714
     22 C          64.9850   91.5222   14.2029 C.3     1  UNL1        0.1146
     23 C          65.8676   92.2383   13.2241 C.2     1  UNL1        0.2307
     24 O          67.3593   92.1450   13.3516 O.2     1  UNL1       -0.2744
     25 N          65.2586   93.0477   12.1178 N.am    1  UNL1       -0.2815
     26 H          64.2796   93.1089   12.0341 H       1  UNL1        0.1549
     27 C          66.1412   93.7638   11.1389 C.ar    1  UNL1        0.0847
     28 C          66.1166   95.2337   10.8410 C.ar    1  UNL1        0.1110
     29 N          67.1637   95.5141    9.8040 N.ar    1  UNL1       -0.2464
     30 C          67.4830   96.8556    9.2137 C.3     1  UNL1        0.1538
     31 N          67.8354   94.2174    9.4612 N.ar    1  UNL1       -0.1723
     32 C          67.2035   93.1357   10.2861 C.ar    1  UNL1        0.0938
     33 C          67.5696   91.6813   10.2625 C.3     1  UNL1        0.0553
@<TRIPOS>BOND
     1    20    21    1
     2    21    10    1
     3    10    11   ar
     4    11    12   ar
     5    12    13   ar
     6    13    14   ar
     7    14     9    1
     8     9     1    1
     9     1     2   ar
    10     2     3   ar
    11     3     4   ar
    12     4    22    1
    13    22    23    1
    14    23    24    2
    15    23    25   am
    16    25    27    1
    17    27    28   ar
    18    28    29   ar
    19    29    30    1
    20    29    31   ar
    21    31    32   ar
    22    32    33    1
    23     4     5   ar
    24     5     7    1
    25     7     8    1
    26     5     6   ar
    27    14    15   ar
    28    15    16   ar
    29    16    17   ar
    30    17    18   ar
    31    18    19   ar
    32    19    10   ar
    33    18    13   ar
    34     6     1   ar
    35    32    27   ar
    36    25    26    1
@<TRIPOS>MOLECULE
*****
 33 36 0 0 0
SMALL
GASTEIGER

@<TRIPOS>ATOM
      1 C          63.1014   90.1389   13.2510 C.ar    1  UNL1        0.1483
      2 C          63.8719   88.8626   13.4169 C.ar    1  UNL1        0.0374
      3 C          63.4846   87.6452   12.6309 C.ar    1  UNL1        0.0023
      4 C          62.3269   87.7041   11.6789 C.ar    1  UNL1        0.0211
      5 C          61.5564   88.9804   11.5130 C.ar    1  UNL1        0.1382
      6 C          61.9437   90.1978   12.2991 C.ar    1  UNL1        0.0740
      7 O          60.3987   89.0392   10.5611 O.3     1  UNL1       -0.4716
      8 C          60.6322   89.3638    9.1153 C.3     1  UNL1        0.2525
      9 O          63.4887   91.3563   14.0371 O.3     1  UNL1       -0.4533
     10 C          66.9192   93.1056   10.2395 C.ar    1  UNL1        0.1402
     11 C          65.4907   92.6488   10.2198 C.ar    1  UNL1        0.0371
     12 C          64.8234   92.2179   11.4922 C.ar    1  UNL1        0.0077
     13 C          65.5846   92.2440   12.7844 C.ar    1  UNL1        0.0524
     14 C          64.9173   91.8132   14.0569 C.ar    1  UNL1        0.1482
     15 C          65.6785   91.8393   15.3490 C.ar    1  UNL1        0.0581
     16 C          67.1072   92.2962   15.3688 C.ar    1  UNL1        0.1020
     17 N          67.7745   92.7270   14.0964 N.ar    1  UNL1       -0.2435
     18 C          67.0132   92.7009   12.8042 C.ar    1  UNL1        0.0873
     19 C          67.6805   93.1317   11.5317 C.ar    1  UNL1        0.0561
     20 C          67.6057   94.9865    8.5840 C.3     1  UNL1        0.2525
     21 O          67.5865   93.5364    8.9671 O.3     1  UNL1       -0.4714
     22 C          61.9396   86.4866   10.8929 C.3     1  UNL1        0.1146
     23 C          62.4222   85.1325   11.3211 C.2     1  UNL1        0.2307
     24 O          63.1488   84.2529   10.3474 O.2     1  UNL1       -0.2744
     25 N          62.1782   84.6581   12.7230 N.am    1  UNL1       -0.2815
     26 H          61.7013   85.2355   13.3621 H       1  UNL1        0.1549
     27 C          62.6609   83.3040   13.1512 C.ar    1  UNL1        0.0847
     28 C          62.0450   81.9889   12.7752 C.ar    1  UNL1        0.1110
     29 N          62.8477   80.8993   13.4223 N.ar    1  UNL1       -0.2464
     30 C          62.5846   79.4266   13.3127 C.3     1  UNL1        0.1538
     31 N          63.9596   81.5410   14.1982 N.ar    1  UNL1       -0.1723
     32 C          63.8441   83.0271   14.0307 C.ar    1  UNL1        0.0938
     33 C          64.7524   84.0559   14.6362 C.3     1  UNL1        0.0553
@<TRIPOS>BOND
     1    20    21    1
     2    21    10    1
     3    10    11   ar
     4    11    12   ar
     5    12    13   ar
     6    13    14   ar
     7    14     9    1
     8     9     1    1
     9     1     2   ar
    10     2     3   ar
    11     3     4   ar
    12     4    22    1
    13    22    23    1
    14    23    24    2
    15    23    25   am
    16    25    27    1
    17    27    28   ar
    18    28    29   ar
    19    29    30    1
    20    29    31   ar
    21    31    32   ar
    22    32    33    1
    23     4     5   ar
    24     5     7    1
    25     7     8    1
    26     5     6   ar
    27    14    15   ar
    28    15    16   ar
    29    16    17   ar
    30    17    18   ar
    31    18    19   ar
    32    19    10   ar
    33    18    13   ar
    34     6     1   ar
    35    32    27   ar
    36    25    26    1
@<TRIPOS>MOLECULE
*****
 33 36 0 0 0
SMALL
GASTEIGER

@<TRIPOS>ATOM
      1 C          62.7830   88.4006   12.5083 C.ar    1  UNL1        0.1483
      2 C          63.6776   88.1795   13.6917 C.ar    1  UNL1        0.0374
      3 C          64.6032   89.2688   14.1463 C.ar    1  UNL1        0.0023
      4 C          64.6342   90.5794   13.4173 C.ar    1  UNL1        0.0211
      5 C          63.7395   90.8006   12.2337 C.ar    1  UNL1        0.1382
      6 C          62.8139   89.7113   11.7792 C.ar    1  UNL1        0.0740
      7 O          63.7705   92.1112   11.5048 O.3     1  UNL1       -0.4716
      8 C          63.6878   92.1386   10.0073 C.3     1  UNL1        0.2525
      9 O          61.8574   87.3113   12.0537 O.3     1  UNL1       -0.4533
     10 C          63.4420   82.1887   12.7594 C.ar    1  UNL1        0.1402
     11 C          62.9432   83.2597   13.6835 C.ar    1  UNL1        0.0371
     12 C          62.5812   84.6102   13.1402 C.ar    1  UNL1        0.0077
     13 C          62.7182   84.8897   11.6729 C.ar    1  UNL1        0.0524
     14 C          62.3563   86.2403   11.1297 C.ar    1  UNL1        0.1482
     15 C          62.4932   86.5197    9.6623 C.ar    1  UNL1        0.0581
     16 C          62.9921   85.4487    8.7382 C.ar    1  UNL1        0.1020
     17 N          63.3541   84.0982    9.2814 N.ar    1  UNL1       -0.2435
     18 C          63.2171   83.8187   10.7488 C.ar    1  UNL1        0.0873
     19 C          63.5790   82.4682   11.2921 C.ar    1  UNL1        0.0561
     20 C          62.7266   79.8431   13.6175 C.3     1  UNL1        0.2525
     21 O          63.8039   80.8382   13.3026 O.3     1  UNL1       -0.4714
     22 C          65.5597   91.6687   13.8718 C.3     1  UNL1        0.1146
     23 C          66.0380   92.7023   12.8957 C.2     1  UNL1        0.2307
     24 O          65.9937   94.1564   13.2613 O.2     1  UNL1       -0.2744
     25 N          66.5606   92.2819   11.5540 N.am    1  UNL1       -0.2815
     26 H          66.5897   91.3275   11.3141 H       1  UNL1        0.1549
     27 C          67.0389   93.3155   10.5779 C.ar    1  UNL1        0.0847
     28 C          66.6062   94.7509   10.5310 C.ar    1  UNL1        0.1110
     29 N          67.3338   95.4178    9.4013 N.ar    1  UNL1       -0.2464
     30 C          67.2021   96.8555    8.9944 C.3     1  UNL1        0.1538
     31 N          68.2163   94.3944    8.7501 N.ar    1  UNL1       -0.1723
     32 C          68.0340   93.0951    9.4772 C.ar    1  UNL1        0.0938
     33 C          68.7254   91.8024    9.1596 C.3     1  UNL1        0.0553
@<TRIPOS>BOND
     1    20    21    1
     2    21    10    1
     3    10    11   ar
     4    11    12   ar
     5    12    13   ar
     6    13    14   ar
     7    14     9    1
     8     9     1    1
     9     1     2   ar
    10     2     3   ar
    11     3     4   ar
    12     4    22    1
    13    22    23    1
    14    23    24    2
    15    23    25   am
    16    25    27    1
    17    27    28   ar
    18    28    29   ar
    19    29    30    1
    20    29    31   ar
    21    31    32   ar
    22    32    33    1
    23     4     5   ar
    24     5     7    1
    25     7     8    1
    26     5     6   ar
    27    14    15   ar
    28    15    16   ar
    29    16    17   ar
    30    17    18   ar
    31    18    19   ar
    32    19    10   ar
    33    18    13   ar
    34     6     1   ar
    35    32    27   ar
    36    25    26    1
@<TRIPOS>MOLECULE
*****
 33 36 0 0 0
SMALL
GASTEIGER

@<TRIPOS>ATOM
      1 C          62.7780   90.1733   11.4369 C.ar    1  UNL1        0.1483
      2 C          63.2788   88.9993   12.2249 C.ar    1  UNL1        0.0374
      3 C          62.9606   87.6039   11.7758 C.ar    1  UNL1        0.0023
      4 C          62.1417   87.3825   10.5388 C.ar    1  UNL1        0.0211
      5 C          61.6409   88.5565    9.7507 C.ar    1  UNL1        0.1382
      6 C          61.9591   89.9519   10.1998 C.ar    1  UNL1        0.0740
      7 O          60.8220   88.3351    8.5137 O.3     1  UNL1       -0.4716
      8 C          59.3397   88.1321    8.6219 C.3     1  UNL1        0.2525
      9 O          63.0962   91.5687   11.8859 O.3     1  UNL1       -0.4533
     10 C          67.3678   92.0989   15.1604 C.ar    1  UNL1        0.1402
     11 C          65.9827   91.5514   15.3382 C.ar    1  UNL1        0.0371
     12 C          65.0206   91.5571   14.1874 C.ar    1  UNL1        0.0077
     13 C          65.4435   92.1105   12.8589 C.ar    1  UNL1        0.0524
     14 C          64.4813   92.1163   11.7082 C.ar    1  UNL1        0.1482
     15 C          64.9042   92.6696   10.3797 C.ar    1  UNL1        0.0581
     16 C          66.2894   93.2173   10.2020 C.ar    1  UNL1        0.1020
     17 N          67.2515   93.2115   11.3527 N.ar    1  UNL1       -0.2435
     18 C          66.8286   92.6581   12.6812 C.ar    1  UNL1        0.0873
     19 C          67.7907   92.6523   13.8320 C.ar    1  UNL1        0.0561
     20 C          69.3858   93.1539   16.4113 C.3     1  UNL1        0.2525
     21 O          68.3300   92.0932   16.3112 O.3     1  UNL1       -0.4714
     22 C          61.8235   85.9871   10.0897 C.3     1  UNL1        0.1146
     23 C          62.4003   84.8131   10.8239 C.2     1  UNL1        0.2307
     24 O          63.3168   83.8613   10.1140 O.2     1  UNL1       -0.2744
     25 N          62.0606   84.5910   12.2679 N.am    1  UNL1       -0.2815
     26 H          61.4590   85.2157   12.7338 H       1  UNL1        0.1549
     27 C          62.6373   83.4170   13.0020 C.ar    1  UNL1        0.0847
     28 C          62.2734   81.9776   12.7877 C.ar    1  UNL1        0.1110
     29 N          63.0906   81.1472   13.7327 N.ar    1  UNL1       -0.2464
     30 C          63.0465   79.6531   13.8574 C.3     1  UNL1        0.1538
     31 N          63.9594   82.0734   14.5310 N.ar    1  UNL1       -0.1723
     32 C          63.6794   83.4761   14.0795 C.ar    1  UNL1        0.0938
     33 C          64.3274   84.7197   14.6118 C.3     1  UNL1        0.0553
@<TRIPOS>BOND
     1    20    21    1
     2    21    10    1
     3    10    11   ar
     4    11    12   ar
     5    12    13   ar
     6    13    14   ar
     7    14     9    1
     8     9     1    1
     9     1     2   ar
    10     2     3   ar
    11     3     4   ar
    12     4    22    1
    13    22    23    1
    14    23    24    2
    15    23    25   am
    16    25    27    1
    17    27    28   ar
    18    28    29   ar
    19    29    30    1
    20    29    31   ar
    21    31    32   ar
    22    32    33    1
    23     4     5   ar
    24     5     7    1
    25     7     8    1
    26     5     6   ar
    27    14    15   ar
    28    15    16   ar
    29    16    17   ar
    30    17    18   ar
    31    18    19   ar
    32    19    10   ar
    33    18    13   ar
    34     6     1   ar
    35    32    27   ar
    36    25    26    1
@<TRIPOS>MOLECULE
*****
 33 36 0 0 0
SMALL
GASTEIGER

@<TRIPOS>ATOM
      1 C          63.5097   85.2609   14.5581 C.ar    1  UNL1        0.1483
      2 C          64.2646   86.4114   13.9610 C.ar    1  UNL1        0.0374
      3 C          64.2513   87.7496   14.6385 C.ar    1  UNL1        0.0023
      4 C          63.4831   87.9375   15.9130 C.ar    1  UNL1        0.0211
      5 C          62.7281   86.7870   16.5102 C.ar    1  UNL1        0.1382
      6 C          62.7414   85.4487   15.8327 C.ar    1  UNL1        0.0740
      7 O          61.9599   86.9748   17.7847 O.3     1  UNL1       -0.4716
      8 C          62.6725   86.9278   19.1039 C.3     1  UNL1        0.2525
      9 O          63.5230   83.9227   13.8807 O.3     1  UNL1       -0.4533
     10 C          61.2396   86.5807    9.7611 C.ar    1  UNL1        0.1402
     11 C          61.1093   86.6648   11.2531 C.ar    1  UNL1        0.0371
     12 C          61.9139   85.7508   12.1289 C.ar    1  UNL1        0.0077
     13 C          62.8488   84.7526   11.5129 C.ar    1  UNL1        0.0524
     14 C          63.6533   83.8386   12.3888 C.ar    1  UNL1        0.1482
     15 C          64.5882   82.8404   11.7727 C.ar    1  UNL1        0.0581
     16 C          64.7186   82.7562   10.2807 C.ar    1  UNL1        0.1020
     17 N          63.9140   83.6702    9.4049 N.ar    1  UNL1       -0.2435
     18 C          62.9791   84.6685   10.0210 C.ar    1  UNL1        0.0873
     19 C          62.1745   85.5825    9.1451 C.ar    1  UNL1        0.0561
     20 C          59.2142   86.9783    8.1833 C.3     1  UNL1        0.2525
     21 O          60.4350   87.4948    8.8852 O.3     1  UNL1       -0.4714
     22 C          63.4698   89.2757   16.5904 C.3     1  UNL1        0.1146
     23 C          63.9579   90.4912   15.8595 C.2     1  UNL1        0.2307
     24 O          63.4184   91.8455   16.2124 O.2     1  UNL1       -0.2744
     25 N          64.9856   90.3523   14.7757 N.am    1  UNL1       -0.2815
     26 H          65.3397   89.4634   14.5441 H       1  UNL1        0.1549
     27 C          65.4737   91.5678   14.0448 C.ar    1  UNL1        0.0847
     28 C          65.0962   91.9684   12.6494 C.ar    1  UNL1        0.1110
     29 N          65.8143   93.2444   12.3232 N.ar    1  UNL1       -0.2464
     30 C          65.7265   93.9997   11.0302 C.3     1  UNL1        0.1538
     31 N          66.6356   93.6324   13.5169 N.ar    1  UNL1       -0.1723
     32 C          66.4251   92.5962   14.5809 C.ar    1  UNL1        0.0938
     33 C          67.0553   92.5896   15.9421 C.3     1  UNL1        0.0553
@<TRIPOS>BOND
     1    20    21    1
     2    21    10    1
     3    10    11   ar
     4    11    12   ar
     5    12    13   ar
     6    13    14   ar
     7    14     9    1
     8     9     1    1
     9     1     2   ar
    10     2     3   ar
    11     3     4   ar
    12     4    22    1
    13    22    23    1
    14    23    24    2
    15    23    25   am
    16    25    27    1
    17    27    28   ar
    18    28    29   ar
    19    29    30    1
    20    29    31   ar
    21    31    32   ar
    22    32    33    1
    23     4     5   ar
    24     5     7    1
    25     7     8    1
    26     5     6   ar
    27    14    15   ar
    28    15    16   ar
    29    16    17   ar
    30    17    18   ar
    31    18    19   ar
    32    19    10   ar
    33    18    13   ar
    34     6     1   ar
    35    32    27   ar
    36    25    26    1
@<TRIPOS>MOLECULE
*****
 33 36 0 0 0
SMALL
GASTEIGER

@<TRIPOS>ATOM
      1 C          63.3300   87.5000   13.4888 C.ar    1  UNL1        0.1483
      2 C          64.3994   88.0255   14.3998 C.ar    1  UNL1        0.0374
      3 C          64.8052   89.4677   14.3265 C.ar    1  UNL1        0.0023
      4 C          64.1415   90.3844   13.3421 C.ar    1  UNL1        0.0211
      5 C          63.0720   89.8590   12.4309 C.ar    1  UNL1        0.1382
      6 C          62.6662   88.4168   12.5043 C.ar    1  UNL1        0.0740
      7 O          62.4083   90.7757   11.4465 O.3     1  UNL1       -0.4716
      8 C          61.5686   90.2077   10.3409 C.3     1  UNL1        0.2525
      9 O          62.9242   86.0578   13.5621 O.3     1  UNL1       -0.4533
     10 C          62.0004   85.2919    8.2886 C.ar    1  UNL1        0.1402
     11 C          61.4850   86.2686    9.3037 C.ar    1  UNL1        0.0371
     12 C          61.9647   86.1984   10.7232 C.ar    1  UNL1        0.0077
     13 C          62.9598   85.1514   11.1276 C.ar    1  UNL1        0.0524
     14 C          63.4395   85.0811   12.5471 C.ar    1  UNL1        0.1482
     15 C          64.4346   84.0342   12.9515 C.ar    1  UNL1        0.0581
     16 C          64.9501   83.0574   11.9364 C.ar    1  UNL1        0.1020
     17 N          64.4703   83.1277   10.5169 N.ar    1  UNL1       -0.2435
     18 C          63.4752   84.1747   10.1125 C.ar    1  UNL1        0.0873
     19 C          62.9955   84.2450    8.6930 C.ar    1  UNL1        0.0561
     20 C          62.0810   84.4249    5.8408 C.3     1  UNL1        0.2525
     21 O          61.5207   85.3622    6.8691 O.3     1  UNL1       -0.4714
     22 C          64.5473   91.8266   13.2687 C.3     1  UNL1        0.1146
     23 C          65.1355   92.3768   12.0033 C.2     1  UNL1        0.2307
     24 O          64.7542   91.7839   10.6793 O.2     1  UNL1       -0.2744
     25 N          66.1049   93.5200   12.0619 N.am    1  UNL1       -0.2815
     26 H          66.3552   93.9091   12.9309 H       1  UNL1        0.1549
     27 C          66.6931   94.0702   10.7965 C.ar    1  UNL1        0.0847
     28 C          66.4377   95.4336   10.2254 C.ar    1  UNL1        0.1110
     29 N          67.2268   95.5596    8.9559 N.ar    1  UNL1       -0.2464
     30 C          67.2659   96.7603    8.0577 C.3     1  UNL1        0.1538
     31 N          67.9697   94.2741    8.7423 N.ar    1  UNL1       -0.1723
     32 C          67.6399   93.3536    9.8798 C.ar    1  UNL1        0.0938
     33 C          68.1646   91.9611   10.0677 C.3     1  UNL1        0.0553
@<TRIPOS>BOND
     1    20    21    1
     2    21    10    1
     3    10    11   ar
     4    11    12   ar
     5    12    13   ar
     6    13    14   ar
     7    14     9    1
     8     9     1    1
     9     1     2   ar
    10     2     3   ar
    11     3     4   ar
    12     4    22    1
    13    22    23    1
    14    23    24    2
    15    23    25   am
    16    25    27    1
    17    27    28   ar
    18    28    29   ar
    19    29    30    1
    20    29    31   ar
    21    31    32   ar
    22    32    33    1
    23     4     5   ar
    24     5     7    1
    25     7     8    1
    26     5     6   ar
    27    14    15   ar
    28    15    16   ar
    29    16    17   ar
    30    17    18   ar
    31    18    19   ar
    32    19    10   ar
    33    18    13   ar
    34     6     1   ar
    35    32    27   ar
    36    25    26    1
