@<TRIPOS>MOLECULE
*****
 15 16 0 0 0
SMALL
GASTEIGER

@<TRIPOS>ATOM
      1 C          60.4696   87.9799   10.9053 C.ar    1  UNL1        0.1677
      2 C          61.0183   87.9536    9.5094 C.ar    1  UNL1        0.0424
      3 C          61.9389   86.7748    9.3955 C.ar    1  UNL1        0.0407
      4 C          61.9591   86.0726   10.7208 C.ar    1  UNL1        0.1469
      5 O          61.0511   86.8174   11.6539 O.2     1  UNL1       -0.4518
      6 C          62.7488   84.8417   11.0545 C.ar    1  UNL1        0.0537
      7 C          63.4583   84.0885    9.9685 C.ar    1  UNL1        0.0062
      8 C          64.2479   82.8576   10.3022 C.ar    1  UNL1        0.0208
      9 C          64.3281   82.3799   11.7219 C.ar    1  UNL1        0.0989
     10 N          63.6187   83.1331   12.8078 N.ar    1  UNL1       -0.2422
     11 C          62.8290   84.3640   12.4741 C.ar    1  UNL1        0.1019
     12 O          58.7164   91.4558   11.6761 O.2     1  UNL1       -0.4086
     13 N          59.6778   90.4445   11.1256 N.2     1  UNL1       -0.0814
     14 C          59.5082   88.9912   11.4558 C.2     1  UNL1        0.1771
     15 H          58.8223   92.3637   11.4699 H       1  UNL1        0.3278
@<TRIPOS>BOND
     1    12    13    1
     2    13    14    2
     3    14     1    1
     4     1     2   ar
     5     2     3   ar
     6     3     4   ar
     7     4     6    1
     8     6     7   ar
     9     7     8   ar
    10     8     9   ar
    11     9    10   ar
    12    10    11   ar
    13     4     5   ar
    14     5     1   ar
    15    11     6   ar
    16    12    15    1
@<TRIPOS>MOLECULE
*****
 15 16 0 0 0
SMALL
GASTEIGER

@<TRIPOS>ATOM
      1 C          62.7638   87.7228   11.9436 C.ar    1  UNL1        0.1677
      2 C          61.9652   87.2037   10.7847 C.ar    1  UNL1        0.0424
      3 C          61.8937   85.7101   10.9032 C.ar    1  UNL1        0.0407
      4 C          62.6481   85.3061   12.1352 C.ar    1  UNL1        0.1469
      5 O          63.1859   86.5501   12.7781 O.2     1  UNL1       -0.4518
      6 C          62.8324   83.9043   12.6362 C.ar    1  UNL1        0.0537
      7 C          62.7756   82.7518   11.6778 C.ar    1  UNL1        0.0062
      8 C          62.9598   81.3500   12.1788 C.ar    1  UNL1        0.0208
      9 C          63.2010   81.1008   13.6382 C.ar    1  UNL1        0.0989
     10 N          63.2579   82.2533   14.5965 N.ar    1  UNL1       -0.2422
     11 C          63.0736   83.6550   14.0955 C.ar    1  UNL1        0.1019
     12 O          63.1198   91.1874   13.8462 O.2     1  UNL1       -0.4086
     13 N          62.7995   89.7482   13.5704 N.2     1  UNL1       -0.0814
     14 C          63.0841   89.1621   12.2194 C.2     1  UNL1        0.1771
     15 H          62.9420   91.5536   14.6902 H       1  UNL1        0.3278
@<TRIPOS>BOND
     1    12    13    1
     2    13    14    2
     3    14     1    1
     4     1     2   ar
     5     2     3   ar
     6     3     4   ar
     7     4     6    1
     8     6     7   ar
     9     7     8   ar
    10     8     9   ar
    11     9    10   ar
    12    10    11   ar
    13     4     5   ar
    14     5     1   ar
    15    11     6   ar
    16    12    15    1
@<TRIPOS>MOLECULE
*****
 15 16 0 0 0
SMALL
GASTEIGER

@<TRIPOS>ATOM
      1 C          63.1605   90.1850   12.6203 C.ar    1  UNL1        0.1677
      2 C          63.4976   91.0775   11.4628 C.ar    1  UNL1        0.0424
      3 C          62.9071   90.4726   10.2237 C.ar    1  UNL1        0.0407
      4 C          62.2051   89.2062   10.6154 C.ar    1  UNL1        0.1469
      5 O          62.3617   89.0285   12.0966 O.2     1  UNL1       -0.4518
      6 C          61.4746   88.2801    9.6886 C.ar    1  UNL1        0.0537
      7 C          62.0362   86.9218    9.3894 C.ar    1  UNL1        0.0062
      8 C          61.3057   85.9958    8.4626 C.ar    1  UNL1        0.0208
      9 C          60.0137   86.4281    7.8351 C.ar    1  UNL1        0.0989
     10 N          59.4522   87.7864    8.1343 N.ar    1  UNL1       -0.2422
     11 C          60.1826   88.7124    9.0611 C.ar    1  UNL1        0.1019
     12 O          63.1152   90.0542   16.5865 O.2     1  UNL1       -0.4086
     13 N          62.7224   89.8296   15.1564 N.2     1  UNL1       -0.0814
     14 C          63.5533   90.4096   14.0504 C.2     1  UNL1        0.1771
     15 H          62.5962   89.6919   17.2774 H       1  UNL1        0.3278
@<TRIPOS>BOND
     1    12    13    1
     2    13    14    2
     3    14     1    1
     4     1     2   ar
     5     2     3   ar
     6     3     4   ar
     7     4     6    1
     8     6     7   ar
     9     7     8   ar
    10     8     9   ar
    11     9    10   ar
    12    10    11   ar
    13     4     5   ar
    14     5     1   ar
    15    11     6   ar
    16    12    15    1
@<TRIPOS>MOLECULE
*****
 15 16 0 0 0
SMALL
GASTEIGER

@<TRIPOS>ATOM
      1 C          64.6209   91.0259   13.7362 C.ar    1  UNL1        0.1677
      2 C          65.8661   91.2797   14.5333 C.ar    1  UNL1        0.0424
      3 C          66.7931   92.1078   13.6937 C.ar    1  UNL1        0.0407
      4 C          66.1210   92.3657   12.3778 C.ar    1  UNL1        0.1469
      5 O          64.7785   91.6971   12.4041 O.2     1  UNL1       -0.4518
      6 C          66.6912   93.1540   11.2360 C.ar    1  UNL1        0.0537
      7 C          67.5471   92.4741   10.2088 C.ar    1  UNL1        0.0062
      8 C          68.1173   93.2623    9.0671 C.ar    1  UNL1        0.0208
      9 C          67.8317   94.7304    8.9527 C.ar    1  UNL1        0.0989
     10 N          66.9759   95.4103    9.9799 N.ar    1  UNL1       -0.2422
     11 C          66.4056   94.6221   11.1216 C.ar    1  UNL1        0.1019
     12 O          61.9468   89.3063   16.1114 O.2     1  UNL1       -0.4086
     13 N          63.1400   90.0931   15.6563 N.2     1  UNL1       -0.0814
     14 C          63.4277   90.2391   14.1914 C.2     1  UNL1        0.1771
     15 H          61.7670   89.2151   17.0265 H       1  UNL1        0.3278
@<TRIPOS>BOND
     1    12    13    1
     2    13    14    2
     3    14     1    1
     4     1     2   ar
     5     2     3   ar
     6     3     4   ar
     7     4     6    1
     8     6     7   ar
     9     7     8   ar
    10     8     9   ar
    11     9    10   ar
    12    10    11   ar
    13     4     5   ar
    14     5     1   ar
    15    11     6   ar
    16    12    15    1
@<TRIPOS>MOLECULE
*****
 15 16 0 0 0
SMALL
GASTEIGER

@<TRIPOS>ATOM
      1 C          63.3928   84.7781   14.5495 C.ar    1  UNL1        0.1677
      2 C          63.9716   83.5057   14.0052 C.ar    1  UNL1        0.0424
      3 C          63.7197   83.4772   12.5268 C.ar    1  UNL1        0.0407
      4 C          62.9852   84.7318   12.1574 C.ar    1  UNL1        0.1469
      5 O          62.7831   85.5358   13.4075 O.2     1  UNL1       -0.4518
      6 C          62.5322   85.1151   10.7797 C.ar    1  UNL1        0.0537
      7 C          63.2817   84.6193    9.5788 C.ar    1  UNL1        0.0062
      8 C          62.8287   85.0027    8.2012 C.ar    1  UNL1        0.0208
      9 C          61.6263   85.8818    8.0245 C.ar    1  UNL1        0.0989
     10 N          60.8768   86.3776    9.2255 N.ar    1  UNL1       -0.2422
     11 C          61.3297   85.9943   10.6031 C.ar    1  UNL1        0.1019
     12 O          62.1769   86.0817   18.0953 O.2     1  UNL1       -0.4086
     13 N          62.1507   85.6440   16.6608 N.2     1  UNL1       -0.0814
     14 C          63.4190   85.2158   15.9840 C.2     1  UNL1        0.1771
     15 H          61.3846   86.3492   18.5181 H       1  UNL1        0.3278
@<TRIPOS>BOND
     1    12    13    1
     2    13    14    2
     3    14     1    1
     4     1     2   ar
     5     2     3   ar
     6     3     4   ar
     7     4     6    1
     8     6     7   ar
     9     7     8   ar
    10     8     9   ar
    11     9    10   ar
    12    10    11   ar
    13     4     5   ar
    14     5     1   ar
    15    11     6   ar
    16    12    15    1
@<TRIPOS>MOLECULE
*****
 15 16 0 0 0
SMALL
GASTEIGER

@<TRIPOS>ATOM
      1 C          63.0756   83.8558   11.7157 C.ar    1  UNL1        0.1677
      2 C          63.7597   83.6183   10.4021 C.ar    1  UNL1        0.0424
      3 C          63.2287   84.6160    9.4159 C.ar    1  UNL1        0.0407
      4 C          62.2164   85.4701   10.1201 C.ar    1  UNL1        0.1469
      5 O          62.1218   85.0002   11.5415 O.2     1  UNL1       -0.4518
      6 C          61.4357   86.5964    9.5100 C.ar    1  UNL1        0.0537
      7 C          60.3502   86.3048    8.5168 C.ar    1  UNL1        0.0062
      8 C          59.5696   87.4310    7.9067 C.ar    1  UNL1        0.0208
      9 C          59.8745   88.8489    8.2899 C.ar    1  UNL1        0.0989
     10 N          60.9600   89.1404    9.2832 N.ar    1  UNL1       -0.2422
     11 C          61.7406   88.0142    9.8932 C.ar    1  UNL1        0.1019
     12 O          62.6929   82.5895   15.4574 O.2     1  UNL1       -0.4086
     13 N          62.4634   83.3611   14.1917 N.2     1  UNL1       -0.0814
     14 C          63.3051   83.0842   12.9815 C.2     1  UNL1        0.1771
     15 H          62.1670   82.7625   16.2135 H       1  UNL1        0.3278
@<TRIPOS>BOND
     1    12    13    1
     2    13    14    2
     3    14     1    1
     4     1     2   ar
     5     2     3   ar
     6     3     4   ar
     7     4     6    1
     8     6     7   ar
     9     7     8   ar
    10     8     9   ar
    11     9    10   ar
    12    10    11   ar
    13     4     5   ar
    14     5     1   ar
    15    11     6   ar
    16    12    15    1
@<TRIPOS>MOLECULE
*****
 15 16 0 0 0
SMALL
GASTEIGER

@<TRIPOS>ATOM
      1 C          63.8193   87.6505   13.6057 C.ar    1  UNL1        0.1677
      2 C          64.5513   87.2176   14.8414 C.ar    1  UNL1        0.0424
      3 C          64.4212   85.7279   14.9592 C.ar    1  UNL1        0.0407
      4 C          63.6089   85.2401   13.7964 C.ar    1  UNL1        0.1469
      5 O          63.2369   86.4283   12.9599 O.2     1  UNL1       -0.4518
      6 C          63.2343   83.8143   13.5188 C.ar    1  UNL1        0.0537
      7 C          63.2243   83.3024   12.1090 C.ar    1  UNL1        0.0062
      8 C          62.8497   81.8767   11.8315 C.ar    1  UNL1        0.0208
      9 C          62.4853   80.9629   12.9638 C.ar    1  UNL1        0.0989
     10 N          62.4953   81.4749   14.3737 N.ar    1  UNL1       -0.2422
     11 C          62.8699   82.9006   14.6512 C.ar    1  UNL1        0.1019
     12 O          63.4081   91.5976   13.5746 O.2     1  UNL1       -0.4086
     13 N          63.5353   90.1897   14.0763 N.2     1  UNL1       -0.0814
     14 C          63.6920   89.0583   13.1040 C.2     1  UNL1        0.1771
     15 H          63.3101   92.3044   14.1819 H       1  UNL1        0.3278
@<TRIPOS>BOND
     1    12    13    1
     2    13    14    2
     3    14     1    1
     4     1     2   ar
     5     2     3   ar
     6     3     4   ar
     7     4     6    1
     8     6     7   ar
     9     7     8   ar
    10     8     9   ar
    11     9    10   ar
    12    10    11   ar
    13     4     5   ar
    14     5     1   ar
    15    11     6   ar
    16    12    15    1
@<TRIPOS>MOLECULE
*****
 15 16 0 0 0
SMALL
GASTEIGER

@<TRIPOS>ATOM
      1 C          60.0693   87.2048    8.8898 C.ar    1  UNL1        0.1677
      2 C          60.0853   87.8371   10.2500 C.ar    1  UNL1        0.0424
      3 C          61.0074   87.0376   11.1220 C.ar    1  UNL1        0.0407
      4 C          61.5614   85.9111   10.3008 C.ar    1  UNL1        0.1469
      5 O          60.9816   86.0145    8.9212 O.2     1  UNL1       -0.4518
      6 C          62.5258   84.8650   10.7758 C.ar    1  UNL1        0.0537
      7 C          63.3638   84.1124    9.7852 C.ar    1  UNL1        0.0062
      8 C          64.3282   83.0663   10.2603 C.ar    1  UNL1        0.0208
      9 C          64.4545   82.7728   11.7258 C.ar    1  UNL1        0.0989
     10 N          63.6164   83.5254   12.7164 N.ar    1  UNL1       -0.2422
     11 C          62.6521   84.5715   12.2414 C.ar    1  UNL1        0.1019
     12 O          58.6510   89.5615    6.0290 O.2     1  UNL1       -0.4086
     13 N          59.4406   89.0869    7.2127 N.2     1  UNL1       -0.0814
     14 C          59.2797   87.6795    7.7061 C.2     1  UNL1        0.1771
     15 H          58.7515   90.4407    5.7208 H       1  UNL1        0.3278
@<TRIPOS>BOND
     1    12    13    1
     2    13    14    2
     3    14     1    1
     4     1     2   ar
     5     2     3   ar
     6     3     4   ar
     7     4     6    1
     8     6     7   ar
     9     7     8   ar
    10     8     9   ar
    11     9    10   ar
    12    10    11   ar
    13     4     5   ar
    14     5     1   ar
    15    11     6   ar
    16    12    15    1
@<TRIPOS>MOLECULE
*****
 15 16 0 0 0
SMALL
GASTEIGER

@<TRIPOS>ATOM
      1 C          66.0025   93.0668   13.2141 C.ar    1  UNL1        0.1677
      2 C          66.1780   93.4182   11.7664 C.ar    1  UNL1        0.0424
      3 C          65.2426   92.5622   10.9650 C.ar    1  UNL1        0.0407
      4 C          64.4890   91.6818   11.9174 C.ar    1  UNL1        0.1469
      5 O          64.9587   91.9936   13.3074 O.2     1  UNL1       -0.4518
      6 C          63.4484   90.6675   11.5451 C.ar    1  UNL1        0.0537
      7 C          62.6684   90.8253   10.2736 C.ar    1  UNL1        0.0062
      8 C          61.6279   89.8111    9.9013 C.ar    1  UNL1        0.0208
      9 C          61.3674   88.6391   10.8005 C.ar    1  UNL1        0.0989
     10 N          62.1474   88.4813   12.0720 N.ar    1  UNL1       -0.2422
     11 C          63.1879   89.4955   12.4443 C.ar    1  UNL1        0.1019
     12 O          68.8551   93.8107   15.8711 O.2     1  UNL1       -0.4086
     13 N          68.1164   93.1967   14.7189 N.2     1  UNL1       -0.0814
     14 C          66.7412   93.6808   14.3662 C.2     1  UNL1        0.1771
     15 H          69.7142   93.5082   16.0914 H       1  UNL1        0.3278
@<TRIPOS>BOND
     1    12    13    1
     2    13    14    2
     3    14     1    1
     4     1     2   ar
     5     2     3   ar
     6     3     4   ar
     7     4     6    1
     8     6     7   ar
     9     7     8   ar
    10     8     9   ar
    11     9    10   ar
    12    10    11   ar
    13     4     5   ar
    14     5     1   ar
    15    11     6   ar
    16    12    15    1
