@<TRIPOS>MOLECULE
*****
 27 28 0 0 0
SMALL
GASTEIGER

@<TRIPOS>ATOM
      1 C          65.0847   92.0189   12.6356 C.ar    1  UNL1        0.1425
      2 C          63.9242   91.1489   12.2532 C.ar    1  UNL1        0.0368
      3 C          63.5630   89.9651   13.1007 C.ar    1  UNL1        0.0031
      4 C          64.3622   89.6514   14.3306 C.ar    1  UNL1        0.0002
      5 C          65.5227   90.5214   14.7130 C.ar    1  UNL1        0.0069
      6 C          65.8840   91.7051   13.8655 C.ar    1  UNL1        0.1053
      7 C          64.0010   88.4676   15.1780 C.ar    1  UNL1        0.0031
      8 C          64.4200   87.0896   14.7592 C.ar    1  UNL1        0.0207
      9 C          64.0588   85.9058   15.6067 C.ar    1  UNL1        0.0989
     10 N          63.2786   86.1000   16.8730 N.ar    1  UNL1       -0.2423
     11 C          62.8596   87.4781   17.2918 C.ar    1  UNL1        0.0989
     12 C          63.2208   88.6618   16.4443 C.ar    1  UNL1        0.0207
     13 C          67.0445   92.5752   14.2480 C.3     1  UNL1        0.4214
     14 F          68.2050   93.4452   14.6305 F       1  UNL1       -0.1657
     15 F          66.2028   93.2357   15.2993 F       1  UNL1       -0.1657
     16 F          67.8862   91.9146   13.1968 F       1  UNL1       -0.1657
     17 O          65.4459   93.2027   11.7882 O.3     1  UNL1       -0.4741
     18 C          65.9641   92.9979   10.3956 C.3     1  UNL1        0.2192
     19 C          67.3311   93.4912   10.0239 C.3     1  UNL1        0.0798
     20 C          67.7183   92.1035    9.6063 C.3     1  UNL1        0.0193
     21 N          68.6981   93.9844    9.6522 N.3     1  UNL1       -0.3203
     22 H          68.7020   94.2693    8.6728 H       1  UNL1        0.1189
     23 H          69.3786   93.2376    9.7918 H       1  UNL1        0.1189
     24 C          66.9439   94.8789   10.4415 C.3     1  UNL1        0.0179
     25 C          66.7076   95.9072    8.0673 C.3     1  UNL1        0.0000
     26 C          66.2229   95.7775    9.4809 C.3     1  UNL1        0.0014
     27 C          65.0173   96.5464    9.9340 C.3     1  UNL1        0.0000
@<TRIPOS>BOND
     1    25    26    1
     2    26    27    1
     3    26    24    1
     4    24    19    1
     5    19    20    1
     6    19    21    1
     7    19    18    1
     8    18    17    1
     9    17     1    1
    10     1     2   ar
    11     2     3   ar
    12     3     4   ar
    13     4     7    1
    14     7     8   ar
    15     8     9   ar
    16     9    10   ar
    17    10    11   ar
    18    11    12   ar
    19     4     5   ar
    20     5     6   ar
    21     6    13    1
    22    13    14    1
    23    13    15    1
    24    13    16    1
    25     6     1   ar
    26    12     7   ar
    27    21    22    1
    28    21    23    1
@<TRIPOS>MOLECULE
*****
 27 28 0 0 0
SMALL
GASTEIGER

@<TRIPOS>ATOM
      1 C          63.9910   91.0465   12.4690 C.ar    1  UNL1        0.1425
      2 C          63.7172   91.5112   11.0694 C.ar    1  UNL1        0.0368
      3 C          62.9245   90.6473   10.1339 C.ar    1  UNL1        0.0031
      4 C          62.4055   89.3187   10.5980 C.ar    1  UNL1        0.0002
      5 C          62.6793   88.8540   11.9976 C.ar    1  UNL1        0.0069
      6 C          63.4721   89.7179   12.9331 C.ar    1  UNL1        0.1053
      7 C          61.6128   88.4548    9.6624 C.ar    1  UNL1        0.0031
      8 C          62.0119   87.0259    9.4412 C.ar    1  UNL1        0.0207
      9 C          61.2192   86.1620    8.5056 C.ar    1  UNL1        0.0989
     10 N          60.0273   86.7269    7.7913 N.ar    1  UNL1       -0.2423
     11 C          59.6282   88.1558    8.0126 C.ar    1  UNL1        0.0989
     12 C          60.4209   89.0197    8.9481 C.ar    1  UNL1        0.0207
     13 C          63.7458   89.2531   14.3328 C.3     1  UNL1        0.4214
     14 F          64.0196   88.7883   15.7325 F       1  UNL1       -0.1657
     15 F          64.4068   88.0192   13.7938 F       1  UNL1       -0.1657
     16 F          63.0849   90.4870   14.8719 F       1  UNL1       -0.1657
     17 O          64.7838   91.9104   13.4046 O.3     1  UNL1       -0.4741
     18 C          65.9155   92.7429   12.8793 C.3     1  UNL1        0.2192
     19 C          67.2896   92.1528   12.7626 C.3     1  UNL1        0.0798
     20 C          67.3973   92.6802   11.3626 C.3     1  UNL1        0.0193
     21 N          68.6636   91.5626   12.6460 N.3     1  UNL1       -0.3203
     22 H          69.3553   92.2492   12.9470 H       1  UNL1        0.1189
     23 H          68.8413   91.3040   11.6754 H       1  UNL1        0.1189
     24 C          67.1819   91.6253   14.1627 C.3     1  UNL1        0.0179
     25 C          66.3686   92.7054   16.3812 C.3     1  UNL1        0.0000
     26 C          67.4239   92.5375   15.3285 C.3     1  UNL1        0.0014
     27 C          68.7213   93.2819   15.4417 C.3     1  UNL1        0.0000
@<TRIPOS>BOND
     1    25    26    1
     2    26    27    1
     3    26    24    1
     4    24    19    1
     5    19    20    1
     6    19    21    1
     7    19    18    1
     8    18    17    1
     9    17     1    1
    10     1     2   ar
    11     2     3   ar
    12     3     4   ar
    13     4     7    1
    14     7     8   ar
    15     8     9   ar
    16     9    10   ar
    17    10    11   ar
    18    11    12   ar
    19     4     5   ar
    20     5     6   ar
    21     6    13    1
    22    13    14    1
    23    13    15    1
    24    13    16    1
    25     6     1   ar
    26    12     7   ar
    27    21    22    1
    28    21    23    1
@<TRIPOS>MOLECULE
*****
 27 28 0 0 0
SMALL
GASTEIGER

@<TRIPOS>ATOM
      1 C          63.7965   91.1172   12.1040 C.ar    1  UNL1        0.1425
      2 C          63.4405   91.4978   10.6975 C.ar    1  UNL1        0.0368
      3 C          62.6558   90.5499    9.8397 C.ar    1  UNL1        0.0031
      4 C          62.2271   89.2214   10.3885 C.ar    1  UNL1        0.0002
      5 C          62.5831   88.8408   11.7950 C.ar    1  UNL1        0.0069
      6 C          63.3678   89.7887   12.6528 C.ar    1  UNL1        0.1053
      7 C          61.4423   88.2735    9.5308 C.ar    1  UNL1        0.0031
      8 C          61.8826   86.8462    9.3938 C.ar    1  UNL1        0.0207
      9 C          61.0979   85.8983    8.5360 C.ar    1  UNL1        0.0989
     10 N          59.8729   86.3777    7.8153 N.ar    1  UNL1       -0.2423
     11 C          59.4327   87.8051    7.9523 C.ar    1  UNL1        0.0989
     12 C          60.2174   88.7530    8.8100 C.ar    1  UNL1        0.0207
     13 C          63.7238   89.4080   14.0594 C.3     1  UNL1        0.4214
     14 F          64.0798   89.0273   15.4659 F       1  UNL1       -0.1657
     15 F          63.0449   90.6458   14.5661 F       1  UNL1       -0.1657
     16 F          64.4027   88.1702   13.5526 F       1  UNL1       -0.1657
     17 O          64.5812   92.0651   12.9617 O.3     1  UNL1       -0.4741
     18 C          65.6217   92.9506   12.3428 C.3     1  UNL1        0.2192
     19 C          67.0193   92.4421   12.1472 C.3     1  UNL1        0.0798
     20 C          67.2453   92.4932   13.6292 C.3     1  UNL1        0.0193
     21 N          68.4169   91.9336   11.9516 N.3     1  UNL1       -0.3203
     22 H          68.4174   90.9146   11.9969 H       1  UNL1        0.1189
     23 H          69.0202   92.3069   12.6845 H       1  UNL1        0.1189
     24 C          66.7933   92.3910   10.6652 C.3     1  UNL1        0.0179
     25 C          68.7132   92.3975    8.9148 C.3     1  UNL1        0.0000
     26 C          67.7060   93.1411    9.7410 C.3     1  UNL1        0.0014
     27 C          67.6116   94.6350    9.6430 C.3     1  UNL1        0.0000
@<TRIPOS>BOND
     1    25    26    1
     2    26    27    1
     3    26    24    1
     4    24    19    1
     5    19    20    1
     6    19    21    1
     7    19    18    1
     8    18    17    1
     9    17     1    1
    10     1     2   ar
    11     2     3   ar
    12     3     4   ar
    13     4     7    1
    14     7     8   ar
    15     8     9   ar
    16     9    10   ar
    17    10    11   ar
    18    11    12   ar
    19     4     5   ar
    20     5     6   ar
    21     6    13    1
    22    13    14    1
    23    13    15    1
    24    13    16    1
    25     6     1   ar
    26    12     7   ar
    27    21    22    1
    28    21    23    1
@<TRIPOS>MOLECULE
*****
 27 28 0 0 0
SMALL
GASTEIGER

@<TRIPOS>ATOM
      1 C          62.8027   90.1713   11.8051 C.ar    1  UNL1        0.1425
      2 C          62.7551   90.7844   10.4369 C.ar    1  UNL1        0.0368
      3 C          63.7915   91.7890   10.0288 C.ar    1  UNL1        0.0031
      4 C          64.8756   92.1804   10.9887 C.ar    1  UNL1        0.0002
      5 C          64.9232   91.5673   12.3568 C.ar    1  UNL1        0.0069
      6 C          63.8868   90.5628   12.7650 C.ar    1  UNL1        0.1053
      7 C          65.9120   93.1850   10.5805 C.ar    1  UNL1        0.0031
      8 C          67.1633   92.7326    9.8880 C.ar    1  UNL1        0.0207
      9 C          68.1997   93.7371    9.4798 C.ar    1  UNL1        0.0989
     10 N          67.9849   95.1941    9.7641 N.ar    1  UNL1       -0.2423
     11 C          66.7337   95.6466   10.4566 C.ar    1  UNL1        0.0989
     12 C          65.6972   94.6420   10.8648 C.ar    1  UNL1        0.0207
     13 C          63.9344   89.9497   14.1332 C.3     1  UNL1        0.4214
     14 F          63.9820   89.3367   15.5014 F       1  UNL1       -0.1657
     15 F          63.5180   91.2593   14.7345 F       1  UNL1       -0.1657
     16 F          64.3508   88.6401   13.5319 F       1  UNL1       -0.1657
     17 O          61.7662   89.1667   12.2133 O.3     1  UNL1       -0.4741
     18 C          61.7212   87.8230   11.5482 C.3     1  UNL1        0.2192
     19 C          60.9992   87.6555   10.2441 C.3     1  UNL1        0.0798
     20 C          59.7284   88.1262   10.8872 C.3     1  UNL1        0.0193
     21 N          60.2771   87.4879    8.9401 N.3     1  UNL1       -0.3203
     22 H          60.3211   88.3598    8.4125 H       1  UNL1        0.1189
     23 H          59.3021   87.2480    9.1197 H       1  UNL1        0.1189
     24 C          62.2699   87.1847    9.6010 C.3     1  UNL1        0.0179
     25 C          62.8615   85.1635    8.0796 C.3     1  UNL1        0.0000
     26 C          62.5263   85.7164    9.4331 C.3     1  UNL1        0.0014
     27 C          62.4475   84.8009   10.6187 C.3     1  UNL1        0.0000
@<TRIPOS>BOND
     1    25    26    1
     2    26    27    1
     3    26    24    1
     4    24    19    1
     5    19    20    1
     6    19    21    1
     7    19    18    1
     8    18    17    1
     9    17     1    1
    10     1     2   ar
    11     2     3   ar
    12     3     4   ar
    13     4     7    1
    14     7     8   ar
    15     8     9   ar
    16     9    10   ar
    17    10    11   ar
    18    11    12   ar
    19     4     5   ar
    20     5     6   ar
    21     6    13    1
    22    13    14    1
    23    13    15    1
    24    13    16    1
    25     6     1   ar
    26    12     7   ar
    27    21    22    1
    28    21    23    1
@<TRIPOS>MOLECULE
*****
 27 28 0 0 0
SMALL
GASTEIGER

@<TRIPOS>ATOM
      1 C          62.5901   89.8836   11.7352 C.ar    1  UNL1        0.1425
      2 C          62.5385   90.5526   10.3937 C.ar    1  UNL1        0.0368
      3 C          63.5722   91.5752   10.0253 C.ar    1  UNL1        0.0031
      4 C          64.6574   91.9289   10.9984 C.ar    1  UNL1        0.0002
      5 C          64.7090   91.2600   12.3399 C.ar    1  UNL1        0.0069
      6 C          63.6754   90.2373   12.7084 C.ar    1  UNL1        0.1053
      7 C          65.6911   92.9516   10.6300 C.ar    1  UNL1        0.0031
      8 C          66.9779   92.5208    9.9909 C.ar    1  UNL1        0.0207
      9 C          68.0115   93.5434    9.6224 C.ar    1  UNL1        0.0989
     10 N          67.7584   94.9969    9.8931 N.ar    1  UNL1       -0.2423
     11 C          66.4716   95.4277   10.5323 C.ar    1  UNL1        0.0989
     12 C          65.4380   94.4051   10.9007 C.ar    1  UNL1        0.0207
     13 C          63.7270   89.5684   14.0500 C.3     1  UNL1        0.4214
     14 F          63.7787   88.8995   15.3916 F       1  UNL1       -0.1657
     15 F          63.3282   90.8563   14.7074 F       1  UNL1       -0.1657
     16 F          64.1258   88.2805   13.3926 F       1  UNL1       -0.1657
     17 O          61.5565   88.8610   12.1036 O.3     1  UNL1       -0.4741
     18 C          60.9048   88.0346   11.0349 C.3     1  UNL1        0.2192
     19 C          61.6407   86.8764   10.4291 C.3     1  UNL1        0.0798
     20 C          61.6947   86.2087   11.7712 C.3     1  UNL1        0.0193
     21 N          62.3766   85.7181    9.8233 N.3     1  UNL1       -0.3203
     22 H          61.7065   85.0150    9.5118 H       1  UNL1        0.1189
     23 H          62.9995   85.3092   10.5199 H       1  UNL1        0.1189
     24 C          61.5866   87.5440    9.0869 C.3     1  UNL1        0.0179
     25 C          59.5174   86.4094    8.0001 C.3     1  UNL1        0.0000
     26 C          60.2821   87.6503    8.3542 C.3     1  UNL1        0.0014
     27 C          59.7423   88.9977    7.9755 C.3     1  UNL1        0.0000
@<TRIPOS>BOND
     1    25    26    1
     2    26    27    1
     3    26    24    1
     4    24    19    1
     5    19    20    1
     6    19    21    1
     7    19    18    1
     8    18    17    1
     9    17     1    1
    10     1     2   ar
    11     2     3   ar
    12     3     4   ar
    13     4     7    1
    14     7     8   ar
    15     8     9   ar
    16     9    10   ar
    17    10    11   ar
    18    11    12   ar
    19     4     5   ar
    20     5     6   ar
    21     6    13    1
    22    13    14    1
    23    13    15    1
    24    13    16    1
    25     6     1   ar
    26    12     7   ar
    27    21    22    1
    28    21    23    1
@<TRIPOS>MOLECULE
*****
 27 28 0 0 0
SMALL
GASTEIGER

@<TRIPOS>ATOM
      1 C          62.8182   86.8339   11.9591 C.ar    1  UNL1        0.1425
      2 C          63.5998   86.5840   13.2147 C.ar    1  UNL1        0.0368
      3 C          64.1244   87.7397   14.0141 C.ar    1  UNL1        0.0031
      4 C          63.8673   89.1453   13.5580 C.ar    1  UNL1        0.0002
      5 C          63.0857   89.3952   12.3024 C.ar    1  UNL1        0.0069
      6 C          62.5612   88.2395   11.5030 C.ar    1  UNL1        0.1053
      7 C          64.3919   90.3010   14.3575 C.ar    1  UNL1        0.0031
      8 C          63.8031   90.6119   15.7016 C.ar    1  UNL1        0.0207
      9 C          64.3276   91.7677   16.5010 C.ar    1  UNL1        0.0989
     10 N          65.4410   92.6125   15.9564 N.ar    1  UNL1       -0.2423
     11 C          66.0298   92.3016   14.6123 C.ar    1  UNL1        0.0989
     12 C          65.5052   91.1459   13.8129 C.ar    1  UNL1        0.0207
     13 C          61.7795   88.4894   10.2473 C.3     1  UNL1        0.4214
     14 F          60.9979   88.7394    8.9917 F       1  UNL1       -0.1657
     15 F          62.9006   87.9126    9.4346 F       1  UNL1       -0.1657
     16 F          60.6584   89.0663   11.0599 F       1  UNL1       -0.1657
     17 O          62.2937   85.6781   11.1596 O.3     1  UNL1       -0.4741
     18 C          62.4850   84.2753   11.6549 C.3     1  UNL1        0.2192
     19 C          63.7049   83.4989   11.2560 C.3     1  UNL1        0.0798
     20 C          63.5516   83.9831    9.8446 C.3     1  UNL1        0.0193
     21 N          64.9248   82.7225   10.8571 N.3     1  UNL1       -0.3203
     22 H          65.7511   83.3118   10.9587 H       1  UNL1        0.1189
     23 H          64.8362   82.4258    9.8852 H       1  UNL1        0.1189
     24 C          63.8582   83.0147   12.6674 C.3     1  UNL1        0.0179
     25 C          62.7607   80.6660   12.4974 C.3     1  UNL1        0.0000
     26 C          62.9218   81.9761   13.2099 C.3     1  UNL1        0.0014
     27 C          62.1463   82.2477   14.4649 C.3     1  UNL1        0.0000
@<TRIPOS>BOND
     1    25    26    1
     2    26    27    1
     3    26    24    1
     4    24    19    1
     5    19    20    1
     6    19    21    1
     7    19    18    1
     8    18    17    1
     9    17     1    1
    10     1     2   ar
    11     2     3   ar
    12     3     4   ar
    13     4     7    1
    14     7     8   ar
    15     8     9   ar
    16     9    10   ar
    17    10    11   ar
    18    11    12   ar
    19     4     5   ar
    20     5     6   ar
    21     6    13    1
    22    13    14    1
    23    13    15    1
    24    13    16    1
    25     6     1   ar
    26    12     7   ar
    27    21    22    1
    28    21    23    1
@<TRIPOS>MOLECULE
*****
 27 28 0 0 0
SMALL
GASTEIGER

@<TRIPOS>ATOM
      1 C          64.1842   90.2225   13.7080 C.ar    1  UNL1        0.1425
      2 C          65.3631   90.9793   14.2439 C.ar    1  UNL1        0.0368
      3 C          66.0420   92.0111   13.3927 C.ar    1  UNL1        0.0031
      4 C          65.5420   92.2859   12.0054 C.ar    1  UNL1        0.0002
      5 C          64.3631   91.5290   11.4695 C.ar    1  UNL1        0.0069
      6 C          63.6842   90.4973   12.3207 C.ar    1  UNL1        0.1053
      7 C          66.2209   93.3176   11.1542 C.ar    1  UNL1        0.0031
      8 C          65.9919   94.7763   11.4180 C.ar    1  UNL1        0.0207
      9 C          66.6709   95.8081   10.5667 C.ar    1  UNL1        0.0989
     10 N          67.5787   95.3811    9.4517 N.ar    1  UNL1       -0.2423
     11 C          67.8077   93.9223    9.1879 C.ar    1  UNL1        0.0989
     12 C          67.1288   92.8906   10.0392 C.ar    1  UNL1        0.0207
     13 C          62.5053   89.7404   11.7847 C.3     1  UNL1        0.4214
     14 F          61.3264   88.9835   11.2487 F       1  UNL1       -0.1657
     15 F          63.2873   88.4632   11.8684 F       1  UNL1       -0.1657
     16 F          61.7233   91.0176   11.7010 F       1  UNL1       -0.1657
     17 O          63.5053   89.1907   14.5592 O.3     1  UNL1       -0.4741
     18 C          64.2333   87.9360   14.9406 C.3     1  UNL1        0.2192
     19 C          63.6961   87.0598   16.0332 C.3     1  UNL1        0.0798
     20 C          63.0819   88.2589   16.6927 C.3     1  UNL1        0.0193
     21 N          63.1590   86.1837   17.1259 N.3     1  UNL1       -0.3203
     22 H          62.2262   85.8578   16.8727 H       1  UNL1        0.1189
     23 H          63.1091   86.7158   17.9947 H       1  UNL1        0.1189
     24 C          64.3104   85.8608   15.3738 C.3     1  UNL1        0.0179
     25 C          62.7844   83.7740   15.1149 C.3     1  UNL1        0.0000
     26 C          63.4695   84.9651   14.5132 C.3     1  UNL1        0.0014
     27 C          63.3136   85.2605   13.0508 C.3     1  UNL1        0.0000
@<TRIPOS>BOND
     1    25    26    1
     2    26    27    1
     3    26    24    1
     4    24    19    1
     5    19    20    1
     6    19    21    1
     7    19    18    1
     8    18    17    1
     9    17     1    1
    10     1     2   ar
    11     2     3   ar
    12     3     4   ar
    13     4     7    1
    14     7     8   ar
    15     8     9   ar
    16     9    10   ar
    17    10    11   ar
    18    11    12   ar
    19     4     5   ar
    20     5     6   ar
    21     6    13    1
    22    13    14    1
    23    13    15    1
    24    13    16    1
    25     6     1   ar
    26    12     7   ar
    27    21    22    1
    28    21    23    1
@<TRIPOS>MOLECULE
*****
 27 28 0 0 0
SMALL
GASTEIGER

@<TRIPOS>ATOM
      1 C          63.9460   90.4085   13.3151 C.ar    1  UNL1        0.1425
      2 C          64.5987   89.6967   14.4628 C.ar    1  UNL1        0.0368
      3 C          64.5149   88.2025   14.5639 C.ar    1  UNL1        0.0031
      4 C          63.7784   87.4201   13.5174 C.ar    1  UNL1        0.0002
      5 C          63.1257   88.1319   12.3697 C.ar    1  UNL1        0.0069
      6 C          63.2095   89.6261   12.2686 C.ar    1  UNL1        0.1053
      7 C          63.6946   85.9258   13.6185 C.ar    1  UNL1        0.0031
      8 C          62.9989   85.1394   12.5473 C.ar    1  UNL1        0.0207
      9 C          62.9151   83.6452   12.6484 C.ar    1  UNL1        0.0989
     10 N          63.5270   82.9373   13.8207 N.ar    1  UNL1       -0.2423
     11 C          64.2227   83.7237   14.8920 C.ar    1  UNL1        0.0989
     12 C          64.3065   85.2179   14.7909 C.ar    1  UNL1        0.0207
     13 C          62.5567   90.3380   11.1209 C.3     1  UNL1        0.4214
     14 F          61.9040   91.0498    9.9731 F       1  UNL1       -0.1657
     15 F          63.8594   90.3337   10.3773 F       1  UNL1       -0.1657
     16 F          61.2540   90.3423   11.8644 F       1  UNL1       -0.1657
     17 O          64.0298   91.9028   13.2140 O.3     1  UNL1       -0.4741
     18 C          65.0235   92.5372   12.2867 C.3     1  UNL1        0.2192
     19 C          66.4916   92.4365   12.5778 C.3     1  UNL1        0.0798
     20 C          66.2450   92.9020   13.9822 C.3     1  UNL1        0.0193
     21 N          67.9596   92.3358   12.8689 N.3     1  UNL1       -0.3203
     22 H          68.1723   91.4043   13.2259 H       1  UNL1        0.1189
     23 H          68.2166   93.0341   13.5666 H       1  UNL1        0.1189
     24 C          66.7381   91.9709   11.1734 C.3     1  UNL1        0.0179
     25 C          68.5440   92.3661    9.3478 C.3     1  UNL1        0.0000
     26 C          67.4138   92.8797   10.1897 C.3     1  UNL1        0.0014
     27 C          66.9592   94.3022   10.0479 C.3     1  UNL1        0.0000
@<TRIPOS>BOND
     1    25    26    1
     2    26    27    1
     3    26    24    1
     4    24    19    1
     5    19    20    1
     6    19    21    1
     7    19    18    1
     8    18    17    1
     9    17     1    1
    10     1     2   ar
    11     2     3   ar
    12     3     4   ar
    13     4     7    1
    14     7     8   ar
    15     8     9   ar
    16     9    10   ar
    17    10    11   ar
    18    11    12   ar
    19     4     5   ar
    20     5     6   ar
    21     6    13    1
    22    13    14    1
    23    13    15    1
    24    13    16    1
    25     6     1   ar
    26    12     7   ar
    27    21    22    1
    28    21    23    1
@<TRIPOS>MOLECULE
*****
 27 28 0 0 0
SMALL
GASTEIGER

@<TRIPOS>ATOM
      1 C          63.9110   90.1604   13.3962 C.ar    1  UNL1        0.1425
      2 C          64.5500   89.3945   14.5164 C.ar    1  UNL1        0.0368
      3 C          64.4482   87.8984   14.5558 C.ar    1  UNL1        0.0031
      4 C          63.7073   87.1684   13.4751 C.ar    1  UNL1        0.0002
      5 C          63.0682   87.9344   12.3549 C.ar    1  UNL1        0.0069
      6 C          63.1701   89.4304   12.3155 C.ar    1  UNL1        0.1053
      7 C          63.6054   85.6724   13.5145 C.ar    1  UNL1        0.0031
      8 C          62.9016   84.9392   12.4113 C.ar    1  UNL1        0.0207
      9 C          62.7997   83.4432   12.4508 C.ar    1  UNL1        0.0989
     10 N          63.4017   82.6803   13.5934 N.ar    1  UNL1       -0.2423
     11 C          64.1056   83.4135   14.6966 C.ar    1  UNL1        0.0989
     12 C          64.2074   84.9095   14.6571 C.ar    1  UNL1        0.0207
     13 C          62.5310   90.1964   11.1952 C.3     1  UNL1        0.4214
     14 F          61.8920   90.9623   10.0750 F       1  UNL1       -0.1657
     15 F          63.8747   90.3803   10.5544 F       1  UNL1       -0.1657
     16 F          61.1873   90.0124   11.8359 F       1  UNL1       -0.1657
     17 O          64.0128   91.6564   13.3568 O.3     1  UNL1       -0.4741
     18 C          65.2696   92.3350   13.8150 C.3     1  UNL1        0.2192
     19 C          66.4685   92.3805   12.9146 C.3     1  UNL1        0.0798
     20 C          65.6503   93.0648   11.8599 C.3     1  UNL1        0.0193
     21 N          67.6673   92.4260   12.0142 N.3     1  UNL1       -0.3203
     22 H          68.1763   93.2962   12.1695 H       1  UNL1        0.1189
     23 H          67.3640   92.3785   11.0415 H       1  UNL1        0.1189
     24 C          67.2866   91.6962   13.9693 C.3     1  UNL1        0.0179
     25 C          69.1196   93.0083   15.2610 C.3     1  UNL1        0.0000
     26 C          67.7275   92.4546   15.1860 C.3     1  UNL1        0.0014
     27 C          66.7764   92.6594   16.3277 C.3     1  UNL1        0.0000
@<TRIPOS>BOND
     1    25    26    1
     2    26    27    1
     3    26    24    1
     4    24    19    1
     5    19    20    1
     6    19    21    1
     7    19    18    1
     8    18    17    1
     9    17     1    1
    10     1     2   ar
    11     2     3   ar
    12     3     4   ar
    13     4     7    1
    14     7     8   ar
    15     8     9   ar
    16     9    10   ar
    17    10    11   ar
    18    11    12   ar
    19     4     5   ar
    20     5     6   ar
    21     6    13    1
    22    13    14    1
    23    13    15    1
    24    13    16    1
    25     6     1   ar
    26    12     7   ar
    27    21    22    1
    28    21    23    1
