@<TRIPOS>MOLECULE
*****
 29 32 0 0 0
SMALL
GASTEIGER

@<TRIPOS>ATOM
      1 N          63.2348   84.4462   14.6648 N.ar    1  UNL1       -0.2286
      2 C          62.6561   85.2200   15.8120 C.ar    1  UNL1        0.0990
      3 C          63.1189   86.6418   15.6924 C.ar    1  UNL1        0.0338
      4 C          63.9836   86.7467   14.4712 C.ar    1  UNL1        0.0981
      5 N          64.0552   85.3897   13.8361 N.ar    1  UNL1       -0.1680
      6 C          64.4464   88.1685   14.3515 C.3     1  UNL1        0.1414
      7 N          63.8677   88.9424   15.4988 N.am    1  UNL1       -0.2660
      8 C          64.0733   90.4033   15.7698 C.2     1  UNL1        0.2525
      9 O          63.4272   91.0430   16.9629 O.2     1  UNL1       -0.2698
     10 C          63.0472   87.9988   16.3275 C.3     1  UNL1        0.1236
     11 C          60.0617   80.3563   14.2123 C.3     1  UNL1        0.0521
     12 C          61.4426   80.9403   14.1675 C.ar    1  UNL1        0.0609
     13 C          61.6483   82.4012   14.4385 C.ar    1  UNL1        0.0339
     14 C          63.0292   82.9852   14.3937 C.ar    1  UNL1        0.0855
     15 C          64.2045   82.1084   14.0779 C.ar    1  UNL1        0.0398
     16 C          63.9988   80.6474   13.8069 C.ar    1  UNL1        0.1000
     17 N          62.6179   80.0634   13.8517 N.ar    1  UNL1       -0.2480
     18 C          64.9249   91.2245   14.8477 C.ar    1  UNL1        0.0881
     19 C          66.2554   91.7374   15.3133 C.ar    1  UNL1        0.0178
     20 C          67.1071   92.5587   14.3912 C.ar    1  UNL1        0.0688
     21 C          66.6283   92.8671   13.0037 C.ar    1  UNL1        0.0134
     22 C          65.2978   92.3543   12.5380 C.ar    1  UNL1        0.0377
     23 C          64.4461   91.5330   13.4600 C.ar    1  UNL1        0.1427
     24 C          68.4376   93.0715   14.8570 C.1     1  UNL1        0.1004
     25 N          69.7681   93.5841   15.3228 N.1     1  UNL1       -0.1908
     26 O          63.1156   91.0202   12.9944 O.3     1  UNL1       -0.4790
     27 C          62.9943   90.3584   11.6538 C.3     1  UNL1        0.1661
     28 C          62.7511   88.8809   11.5660 C.3     1  UNL1        0.0472
     29 C          63.1162   91.1742   10.4009 C.3     1  UNL1        0.0472
@<TRIPOS>BOND
     1    11    12    1
     2    12    13   ar
     3    13    14   ar
     4    14     1    1
     5     1     2   ar
     6     2     3   ar
     7     3     4   ar
     8     4     5   ar
     9     4     6    1
    10     6     7    1
    11     7     8   am
    12     8     9    2
    13     8    18    1
    14    18    19   ar
    15    19    20   ar
    16    20    24    1
    17    24    25    3
    18    20    21   ar
    19    21    22   ar
    20    22    23   ar
    21    23    26    1
    22    26    27    1
    23    27    28    1
    24    27    29    1
    25     7    10    1
    26    14    15   ar
    27    15    16   ar
    28    16    17   ar
    29    17    12   ar
    30     5     1   ar
    31    23    18   ar
    32    10     3    1
@<TRIPOS>MOLECULE
*****
 29 32 0 0 0
SMALL
GASTEIGER

@<TRIPOS>ATOM
      1 N          62.7085   84.7793   12.6399 N.ar    1  UNL1       -0.2286
      2 C          62.0571   85.5943   11.5623 C.ar    1  UNL1        0.0990
      3 C          62.5353   87.0095   11.6985 C.ar    1  UNL1        0.0338
      4 C          63.4822   87.0691   12.8602 C.ar    1  UNL1        0.0981
      5 N          63.5893   85.6907   13.4421 N.ar    1  UNL1       -0.1680
      6 C          63.9604   88.4843   12.9964 C.3     1  UNL1        0.1414
      7 N          63.3089   89.2995   11.9187 N.am    1  UNL1       -0.2660
      8 C          63.5040   90.7681   11.6844 C.2     1  UNL1        0.2525
      9 O          62.7815   91.4509   10.5611 O.2     1  UNL1       -0.2698
     10 C          62.4282   88.3879   11.1166 C.3     1  UNL1        0.1236
     11 C          62.9344   79.8797   10.9244 C.3     1  UNL1        0.0521
     12 C          62.6264   80.8607   12.0165 C.ar    1  UNL1        0.0609
     13 C          62.8214   82.3295   11.7822 C.ar    1  UNL1        0.0339
     14 C          62.5135   83.3106   12.8742 C.ar    1  UNL1        0.0855
     15 C          62.0104   82.8230   14.2006 C.ar    1  UNL1        0.0398
     16 C          61.8154   81.3543   14.4348 C.ar    1  UNL1        0.1000
     17 N          62.1234   80.3732   13.3428 N.ar    1  UNL1       -0.2480
     18 C          64.4216   91.5540   12.5734 C.ar    1  UNL1        0.0881
     19 C          64.2319   91.5243   14.0610 C.ar    1  UNL1        0.0178
     20 C          65.1495   92.3103   14.9500 C.ar    1  UNL1        0.0688
     21 C          66.2569   93.1259   14.3514 C.ar    1  UNL1        0.0134
     22 C          66.4467   93.1556   12.8637 C.ar    1  UNL1        0.0377
     23 C          65.5291   92.3697   11.9748 C.ar    1  UNL1        0.1427
     24 C          64.9596   92.2806   16.4377 C.1     1  UNL1        0.1004
     25 N          64.7696   92.2508   17.9253 N.1     1  UNL1       -0.1908
     26 O          65.7189   92.3994   10.4871 O.3     1  UNL1       -0.4790
     27 C          66.9806   92.9623    9.9031 C.3     1  UNL1        0.1661
     28 C          68.1900   92.0888    9.7475 C.3     1  UNL1        0.0472
     29 C          67.0329   94.3989    9.4746 C.3     1  UNL1        0.0472
@<TRIPOS>BOND
     1    11    12    1
     2    12    13   ar
     3    13    14   ar
     4    14     1    1
     5     1     2   ar
     6     2     3   ar
     7     3     4   ar
     8     4     5   ar
     9     4     6    1
    10     6     7    1
    11     7     8   am
    12     8     9    2
    13     8    18    1
    14    18    19   ar
    15    19    20   ar
    16    20    24    1
    17    24    25    3
    18    20    21   ar
    19    21    22   ar
    20    22    23   ar
    21    23    26    1
    22    26    27    1
    23    27    28    1
    24    27    29    1
    25     7    10    1
    26    14    15   ar
    27    15    16   ar
    28    16    17   ar
    29    17    12   ar
    30     5     1   ar
    31    23    18   ar
    32    10     3    1
@<TRIPOS>MOLECULE
*****
 29 32 0 0 0
SMALL
GASTEIGER

@<TRIPOS>ATOM
      1 N          63.1013   83.2925   13.5910 N.ar    1  UNL1       -0.2286
      2 C          62.7768   83.8098   14.9611 C.ar    1  UNL1        0.0990
      3 C          63.1199   85.2695   14.9987 C.ar    1  UNL1        0.0338
      4 C          63.6563   85.6545   13.6518 C.ar    1  UNL1        0.0981
      5 N          63.6448   84.4326   12.7818 N.ar    1  UNL1       -0.1680
      6 C          63.9994   87.1142   13.6893 C.3     1  UNL1        0.1414
      7 N          63.6749   87.6316   15.0595 N.am    1  UNL1       -0.2660
      8 C          63.8613   89.0413   15.5366 C.2     1  UNL1        0.2525
      9 O          63.4899   89.4129   16.9416 O.2     1  UNL1       -0.2698
     10 C          63.1314   86.4914   15.8686 C.3     1  UNL1        0.1236
     11 C          63.0232   79.8243    9.7225 C.3     1  UNL1        0.0521
     12 C          62.8759   80.1485   11.1796 C.ar    1  UNL1        0.0609
     13 C          63.0622   81.5584   11.6568 C.ar    1  UNL1        0.0339
     14 C          62.9149   81.8827   13.1139 C.ar    1  UNL1        0.0855
     15 C          62.5812   80.7972   14.0938 C.ar    1  UNL1        0.0398
     16 C          62.3948   79.3873   13.6166 C.ar    1  UNL1        0.1000
     17 N          62.5422   79.0630   12.1595 N.ar    1  UNL1       -0.2480
     18 C          64.4190   90.0796   14.6087 C.ar    1  UNL1        0.0881
     19 C          65.7632   90.6861   14.8830 C.ar    1  UNL1        0.0178
     20 C          66.3210   91.7245   13.9552 C.ar    1  UNL1        0.0688
     21 C          65.5347   92.1561   12.7531 C.ar    1  UNL1        0.0134
     22 C          64.1904   91.5496   12.4787 C.ar    1  UNL1        0.0377
     23 C          63.6327   90.5113   13.4065 C.ar    1  UNL1        0.1427
     24 C          67.6652   92.3309   14.2296 C.1     1  UNL1        0.1004
     25 N          69.0093   92.9375   14.5041 N.1     1  UNL1       -0.1908
     26 O          62.2885   89.9047   13.1322 O.3     1  UNL1       -0.4790
     27 C          61.8264   89.7137   11.7180 C.3     1  UNL1        0.1661
     28 C          60.7438   90.5881   11.1581 C.3     1  UNL1        0.0472
     29 C          62.4468   88.6483   10.8636 C.3     1  UNL1        0.0472
@<TRIPOS>BOND
     1    11    12    1
     2    12    13   ar
     3    13    14   ar
     4    14     1    1
     5     1     2   ar
     6     2     3   ar
     7     3     4   ar
     8     4     5   ar
     9     4     6    1
    10     6     7    1
    11     7     8   am
    12     8     9    2
    13     8    18    1
    14    18    19   ar
    15    19    20   ar
    16    20    24    1
    17    24    25    3
    18    20    21   ar
    19    21    22   ar
    20    22    23   ar
    21    23    26    1
    22    26    27    1
    23    27    28    1
    24    27    29    1
    25     7    10    1
    26    14    15   ar
    27    15    16   ar
    28    16    17   ar
    29    17    12   ar
    30     5     1   ar
    31    23    18   ar
    32    10     3    1
@<TRIPOS>MOLECULE
*****
 29 32 0 0 0
SMALL
GASTEIGER

@<TRIPOS>ATOM
      1 N          62.5766   84.0738   11.9884 N.ar    1  UNL1       -0.2286
      2 C          61.5829   84.8828   11.2086 C.ar    1  UNL1        0.0990
      3 C          61.9615   86.3287   11.3346 C.ar    1  UNL1        0.0338
      4 C          63.1893   86.4134   12.1922 C.ar    1  UNL1        0.0981
      5 N          63.5694   85.0198   12.5963 N.ar    1  UNL1       -0.1680
      6 C          63.5679   87.8593   12.3182 C.3     1  UNL1        0.1414
      7 N          62.5742   88.6684   11.5384 N.am    1  UNL1       -0.2660
      8 C          62.5734   90.1612   11.3922 C.2     1  UNL1        0.2525
      9 O          61.5097   90.8344   10.5764 O.2     1  UNL1       -0.2698
     10 C          61.5814   87.7224   10.9306 C.3     1  UNL1        0.1236
     11 C          63.0430   79.3464    9.8828 C.3     1  UNL1        0.0521
     12 C          62.8106   80.2172   11.0818 C.ar    1  UNL1        0.0609
     13 C          62.8098   81.7101   10.9356 C.ar    1  UNL1        0.0339
     14 C          62.5774   82.5810   12.1346 C.ar    1  UNL1        0.0855
     15 C          62.3459   81.9590   13.4798 C.ar    1  UNL1        0.0398
     16 C          62.3467   80.4661   13.6259 C.ar    1  UNL1        0.1000
     17 N          62.5791   79.5952   12.4270 N.ar    1  UNL1       -0.2480
     18 C          63.6362   90.9809   12.0618 C.ar    1  UNL1        0.0881
     19 C          64.5511   91.8390   11.2392 C.ar    1  UNL1        0.0178
     20 C          65.6140   92.6589   11.9088 C.ar    1  UNL1        0.0688
     21 C          65.7620   92.6205   13.4009 C.ar    1  UNL1        0.0134
     22 C          64.8471   91.7624   14.2236 C.ar    1  UNL1        0.0377
     23 C          63.7843   90.9426   13.5540 C.ar    1  UNL1        0.1427
     24 C          66.5287   93.5169   11.0861 C.1     1  UNL1        0.1004
     25 N          67.4434   94.3751   10.2633 N.1     1  UNL1       -0.1908
     26 O          62.8695   90.0845   14.3766 O.3     1  UNL1       -0.4790
     27 C          63.4133   89.3082   15.5392 C.3     1  UNL1        0.1661
     28 C          64.2024   88.0550   15.3010 C.3     1  UNL1        0.0472
     29 C          63.1680   89.7851   16.9401 C.3     1  UNL1        0.0472
@<TRIPOS>BOND
     1    11    12    1
     2    12    13   ar
     3    13    14   ar
     4    14     1    1
     5     1     2   ar
     6     2     3   ar
     7     3     4   ar
     8     4     5   ar
     9     4     6    1
    10     6     7    1
    11     7     8   am
    12     8     9    2
    13     8    18    1
    14    18    19   ar
    15    19    20   ar
    16    20    24    1
    17    24    25    3
    18    20    21   ar
    19    21    22   ar
    20    22    23   ar
    21    23    26    1
    22    26    27    1
    23    27    28    1
    24    27    29    1
    25     7    10    1
    26    14    15   ar
    27    15    16   ar
    28    16    17   ar
    29    17    12   ar
    30     5     1   ar
    31    23    18   ar
    32    10     3    1
@<TRIPOS>MOLECULE
*****
 29 32 0 0 0
SMALL
GASTEIGER

@<TRIPOS>ATOM
      1 N          59.6721   89.2542    7.2796 N.ar    1  UNL1       -0.2286
      2 C          59.6568   87.7544    7.2980 C.ar    1  UNL1        0.0990
      3 C          60.4379   87.2976    8.4943 C.ar    1  UNL1        0.0338
      4 C          60.9361   88.5151    9.2152 C.ar    1  UNL1        0.0981
      5 N          60.4628   89.7243    8.4644 N.ar    1  UNL1       -0.1680
      6 C          61.7173   88.0583   10.4114 C.3     1  UNL1        0.1414
      7 N          61.7019   86.5584   10.4300 N.am    1  UNL1       -0.2660
      8 C          62.3614   85.6825   11.4535 C.2     1  UNL1        0.2525
      9 O          62.2598   84.1901   11.3411 O.2     1  UNL1       -0.2698
     10 C          60.9112   86.0883    9.2451 C.3     1  UNL1        0.1236
     11 C          60.0166   92.8091    3.5054 C.3     1  UNL1        0.0521
     12 C          59.1849   91.9076    4.3688 C.ar    1  UNL1        0.0609
     13 C          59.8443   91.0316    5.3925 C.ar    1  UNL1        0.0339
     14 C          59.0126   90.1302    6.2560 C.ar    1  UNL1        0.0855
     15 C          57.5214   90.1046    6.0958 C.ar    1  UNL1        0.0398
     16 C          56.8620   90.9806    5.0722 C.ar    1  UNL1        0.1000
     17 N          57.6937   91.8821    4.2087 N.ar    1  UNL1       -0.2480
     18 C          63.1226   86.2989   12.5896 C.ar    1  UNL1        0.0881
     19 C          63.2629   87.7897   12.6770 C.ar    1  UNL1        0.0178
     20 C          64.0241   88.4061   13.8131 C.ar    1  UNL1        0.0688
     21 C          64.6450   87.5317   14.8618 C.ar    1  UNL1        0.0134
     22 C          64.5047   86.0408   14.7744 C.ar    1  UNL1        0.0377
     23 C          63.7435   85.4244   13.6384 C.ar    1  UNL1        0.1427
     24 C          64.1643   89.8970   13.9004 C.1     1  UNL1        0.1004
     25 N          64.3046   91.3879   13.9875 N.1     1  UNL1       -0.1908
     26 O          63.6032   83.9336   13.5510 O.3     1  UNL1       -0.4790
     27 C          62.6050   83.2222   14.4157 C.3     1  UNL1        0.1661
     28 C          62.2812   81.7806   14.1570 C.3     1  UNL1        0.0472
     29 C          61.9306   83.9525   15.5390 C.3     1  UNL1        0.0472
@<TRIPOS>BOND
     1    11    12    1
     2    12    13   ar
     3    13    14   ar
     4    14     1    1
     5     1     2   ar
     6     2     3   ar
     7     3     4   ar
     8     4     5   ar
     9     4     6    1
    10     6     7    1
    11     7     8   am
    12     8     9    2
    13     8    18    1
    14    18    19   ar
    15    19    20   ar
    16    20    24    1
    17    24    25    3
    18    20    21   ar
    19    21    22   ar
    20    22    23   ar
    21    23    26    1
    22    26    27    1
    23    27    28    1
    24    27    29    1
    25     7    10    1
    26    14    15   ar
    27    15    16   ar
    28    16    17   ar
    29    17    12   ar
    30     5     1   ar
    31    23    18   ar
    32    10     3    1
@<TRIPOS>MOLECULE
*****
 29 32 0 0 0
SMALL
GASTEIGER

@<TRIPOS>ATOM
      1 N          56.7631   92.3731   -3.8457 N.ar    1  UNL1       -0.2286
      2 C          56.2612   93.4446   -2.9236 C.ar    1  UNL1        0.0990
      3 C          57.3789   93.8186   -1.9959 C.ar    1  UNL1        0.0338
      4 C          58.5716   92.9784   -2.3445 C.ar    1  UNL1        0.0981
      5 N          58.1910   92.0850   -3.4877 N.ar    1  UNL1       -0.1680
      6 C          59.6893   93.3525   -1.4168 C.3     1  UNL1        0.1414
      7 N          59.1875   94.4240   -0.4947 N.am    1  UNL1       -0.2660
      8 C          59.9751   95.0903    0.5940 C.2     1  UNL1        0.2525
      9 O          59.3361   96.1512    1.4404 O.2     1  UNL1       -0.2698
     10 C          57.7595   94.7120   -0.8527 C.3     1  UNL1        0.1236
     11 C          53.4031   88.7171   -5.3767 C.3     1  UNL1        0.0521
     12 C          54.2954   89.8787   -5.7000 C.ar    1  UNL1        0.0609
     13 C          55.0831   90.5451   -4.6112 C.ar    1  UNL1        0.0339
     14 C          55.9754   91.7067   -4.9345 C.ar    1  UNL1        0.0855
     15 C          56.0800   92.2020   -6.3465 C.ar    1  UNL1        0.0398
     16 C          55.2922   91.5355   -7.4352 C.ar    1  UNL1        0.1000
     17 N          54.3999   90.3739   -7.1120 N.ar    1  UNL1       -0.2480
     18 C          61.4019   94.6959    0.8365 C.ar    1  UNL1        0.0881
     19 C          61.7143   93.4613    1.6291 C.ar    1  UNL1        0.0178
     20 C          63.1411   93.0668    1.8716 C.ar    1  UNL1        0.0688
     21 C          64.2554   93.9068    1.3216 C.ar    1  UNL1        0.0134
     22 C          63.9430   95.1415    0.5290 C.ar    1  UNL1        0.0377
     23 C          62.5162   95.5359    0.2865 C.ar    1  UNL1        0.1427
     24 C          63.4534   91.8322    2.6642 C.1     1  UNL1        0.1004
     25 N          63.7658   90.5975    3.4567 N.1     1  UNL1       -0.1908
     26 O          62.2038   96.7705   -0.5061 O.3     1  UNL1       -0.4790
     27 C          62.0903   96.6941   -1.9998 C.3     1  UNL1        0.1661
     28 C          63.3237   96.5354   -2.8386 C.3     1  UNL1        0.0472
     29 C          60.7434   96.7764   -2.6548 C.3     1  UNL1        0.0472
@<TRIPOS>BOND
     1    11    12    1
     2    12    13   ar
     3    13    14   ar
     4    14     1    1
     5     1     2   ar
     6     2     3   ar
     7     3     4   ar
     8     4     5   ar
     9     4     6    1
    10     6     7    1
    11     7     8   am
    12     8     9    2
    13     8    18    1
    14    18    19   ar
    15    19    20   ar
    16    20    24    1
    17    24    25    3
    18    20    21   ar
    19    21    22   ar
    20    22    23   ar
    21    23    26    1
    22    26    27    1
    23    27    28    1
    24    27    29    1
    25     7    10    1
    26    14    15   ar
    27    15    16   ar
    28    16    17   ar
    29    17    12   ar
    30     5     1   ar
    31    23    18   ar
    32    10     3    1
@<TRIPOS>MOLECULE
*****
 29 32 0 0 0
SMALL
GASTEIGER

@<TRIPOS>ATOM
      1 N          65.0087   91.2099   13.7887 N.ar    1  UNL1       -0.2286
      2 C          63.7332   90.8870   14.5091 C.ar    1  UNL1        0.0990
      3 C          62.7900   90.2623   13.5242 C.ar    1  UNL1        0.0338
      4 C          63.4825   90.1992   12.1951 C.ar    1  UNL1        0.0981
      5 N          64.8537   90.7848   12.3585 N.ar    1  UNL1       -0.1680
      6 C          62.5392   89.5745   11.2101 C.3     1  UNL1        0.1414
      7 N          61.2637   89.2515   11.9305 N.am    1  UNL1       -0.2660
      8 C          60.0470   88.6152   11.3268 C.2     1  UNL1        0.2525
      9 O          58.8388   88.3517   12.1760 O.2     1  UNL1       -0.2698
     10 C          61.4188   89.6766   13.3607 C.3     1  UNL1        0.1236
     11 C          70.1213   92.1326   13.6921 C.3     1  UNL1        0.0521
     12 C          68.7819   92.3076   14.3441 C.ar    1  UNL1        0.0609
     13 C          67.5650   91.6713   13.7404 C.ar    1  UNL1        0.0339
     14 C          66.2255   91.8463   14.3924 C.ar    1  UNL1        0.0855
     15 C          66.1028   92.6576   15.6480 C.ar    1  UNL1        0.0398
     16 C          67.3197   93.2939   16.2517 C.ar    1  UNL1        0.1000
     17 N          68.6592   93.1189   15.5997 N.ar    1  UNL1       -0.2480
     18 C          60.0383   88.2424    9.8740 C.ar    1  UNL1        0.0881
     19 C          59.6437   89.2566    8.8417 C.ar    1  UNL1        0.0178
     20 C          59.6349   88.8838    7.3888 C.ar    1  UNL1        0.0688
     21 C          60.0208   87.4967    6.9681 C.ar    1  UNL1        0.0134
     22 C          60.4154   86.4824    8.0003 C.ar    1  UNL1        0.0377
     23 C          60.4242   86.8552    9.4532 C.ar    1  UNL1        0.1427
     24 C          59.2403   89.8982    6.3566 C.1     1  UNL1        0.1004
     25 N          58.8457   90.9126    5.3246 N.1     1  UNL1       -0.1908
     26 O          60.8188   85.8409   10.4854 O.3     1  UNL1       -0.4790
     27 C          62.2689   85.5475   10.7326 C.3     1  UNL1        0.1661
     28 C          62.9011   85.9360   12.0362 C.3     1  UNL1        0.0472
     29 C          63.0868   84.8656    9.6762 C.3     1  UNL1        0.0472
@<TRIPOS>BOND
     1    11    12    1
     2    12    13   ar
     3    13    14   ar
     4    14     1    1
     5     1     2   ar
     6     2     3   ar
     7     3     4   ar
     8     4     5   ar
     9     4     6    1
    10     6     7    1
    11     7     8   am
    12     8     9    2
    13     8    18    1
    14    18    19   ar
    15    19    20   ar
    16    20    24    1
    17    24    25    3
    18    20    21   ar
    19    21    22   ar
    20    22    23   ar
    21    23    26    1
    22    26    27    1
    23    27    28    1
    24    27    29    1
    25     7    10    1
    26    14    15   ar
    27    15    16   ar
    28    16    17   ar
    29    17    12   ar
    30     5     1   ar
    31    23    18   ar
    32    10     3    1
@<TRIPOS>MOLECULE
*****
 29 32 0 0 0
SMALL
GASTEIGER

@<TRIPOS>ATOM
      1 N          56.8894   92.2324   -3.7615 N.ar    1  UNL1       -0.2286
      2 C          56.4028   93.1211   -2.6554 C.ar    1  UNL1        0.0990
      3 C          57.5832   93.4969   -1.8096 C.ar    1  UNL1        0.0338
      4 C          58.7993   92.8405   -2.3929 C.ar    1  UNL1        0.0981
      5 N          58.3705   92.0589   -3.5993 N.ar    1  UNL1       -0.1680
      6 C          59.9797   93.2163   -1.5471 C.3     1  UNL1        0.1414
      7 N          59.4931   94.1050   -0.4409 N.am    1  UNL1       -0.2660
      8 C          60.3391   94.7134    0.6379 C.2     1  UNL1        0.2525
      9 O          59.7090   95.5862    1.6827 O.2     1  UNL1       -0.2698
     10 C          58.0120   94.2784   -0.6032 C.3     1  UNL1        0.1236
     11 C          53.3848   88.7109   -5.2837 C.3     1  UNL1        0.0521
     12 C          54.2911   89.8631   -5.6016 C.ar    1  UNL1        0.0609
     13 C          55.1371   90.4717   -4.5227 C.ar    1  UNL1        0.0339
     14 C          56.0434   91.6239   -4.8404 C.ar    1  UNL1        0.0855
     15 C          56.1037   92.1677   -6.2371 C.ar    1  UNL1        0.0398
     16 C          55.2577   91.5591   -7.3160 C.ar    1  UNL1        0.1000
     17 N          54.3514   90.4069   -6.9982 N.ar    1  UNL1       -0.2480
     18 C          61.8152   94.4492    0.6722 C.ar    1  UNL1        0.0881
     19 C          62.7528   95.3294   -0.0998 C.ar    1  UNL1        0.0178
     20 C          64.2291   95.0652   -0.0655 C.ar    1  UNL1        0.0688
     21 C          64.7676   93.9208    0.7408 C.ar    1  UNL1        0.0134
     22 C          63.8300   93.0405    1.5129 C.ar    1  UNL1        0.0377
     23 C          62.3539   93.3047    1.4786 C.ar    1  UNL1        0.1427
     24 C          65.1666   95.9455   -0.8376 C.1     1  UNL1        0.1004
     25 N          66.1042   96.8258   -1.6096 N.1     1  UNL1       -0.1908
     26 O          61.4162   92.4245    2.2506 O.3     1  UNL1       -0.4790
     27 C          61.9395   91.5641    3.3623 C.3     1  UNL1        0.1661
     28 C          61.1166   91.3534    4.5986 C.3     1  UNL1        0.0472
     29 C          63.2857   90.9142    3.2377 C.3     1  UNL1        0.0472
@<TRIPOS>BOND
     1    11    12    1
     2    12    13   ar
     3    13    14   ar
     4    14     1    1
     5     1     2   ar
     6     2     3   ar
     7     3     4   ar
     8     4     5   ar
     9     4     6    1
    10     6     7    1
    11     7     8   am
    12     8     9    2
    13     8    18    1
    14    18    19   ar
    15    19    20   ar
    16    20    24    1
    17    24    25    3
    18    20    21   ar
    19    21    22   ar
    20    22    23   ar
    21    23    26    1
    22    26    27    1
    23    27    28    1
    24    27    29    1
    25     7    10    1
    26    14    15   ar
    27    15    16   ar
    28    16    17   ar
    29    17    12   ar
    30     5     1   ar
    31    23    18   ar
    32    10     3    1
@<TRIPOS>MOLECULE
*****
 29 32 0 0 0
SMALL
GASTEIGER

@<TRIPOS>ATOM
      1 N          60.7717   93.6570   -0.0598 N.ar    1  UNL1       -0.2286
      2 C          59.7263   94.7322   -0.0283 C.ar    1  UNL1        0.0990
      3 C          58.7773   94.4894   -1.1643 C.ar    1  UNL1        0.0338
      4 C          59.2363   93.2641   -1.8979 C.ar    1  UNL1        0.0981
      5 N          60.4689   92.7497   -1.2153 N.ar    1  UNL1       -0.1680
      6 C          58.2873   93.0213   -3.0339 C.3     1  UNL1        0.1414
      7 N          57.2418   94.0966   -3.0024 N.am    1  UNL1       -0.2660
      8 C          56.0949   94.2394   -3.9584 C.2     1  UNL1        0.2525
      9 O          55.1239   95.3719   -3.8012 O.2     1  UNL1       -0.2698
     10 C          57.5447   95.0038   -1.8469 C.3     1  UNL1        0.1236
     11 C          63.4828   90.7877    3.3192 C.3     1  UNL1        0.0521
     12 C          63.2742   92.0794    2.5858 C.ar    1  UNL1        0.0609
     13 C          62.1273   92.2224    1.6297 C.ar    1  UNL1        0.0339
     14 C          61.9187   93.5141    0.8963 C.ar    1  UNL1        0.0855
     15 C          62.8570   94.6630    1.1190 C.ar    1  UNL1        0.0398
     16 C          64.0040   94.5200    2.0751 C.ar    1  UNL1        0.1000
     17 N          64.2126   93.2283    2.8085 N.ar    1  UNL1       -0.2480
     18 C          55.9189   93.2498   -5.0718 C.ar    1  UNL1        0.0881
     19 C          55.2370   91.9396   -4.8099 C.ar    1  UNL1        0.0178
     20 C          55.0610   90.9499   -5.9233 C.ar    1  UNL1        0.0688
     21 C          55.5667   91.2704   -7.2985 C.ar    1  UNL1        0.0134
     22 C          56.2486   92.5806   -7.5605 C.ar    1  UNL1        0.0377
     23 C          56.4246   93.5702   -6.4472 C.ar    1  UNL1        0.1427
     24 C          54.3791   89.6398   -5.6612 C.1     1  UNL1        0.1004
     25 N          53.6973   88.3297   -5.3990 N.1     1  UNL1       -0.1908
     26 O          57.1065   94.8803   -6.7091 O.3     1  UNL1       -0.4790
     27 C          58.5930   94.9980   -6.5463 C.3     1  UNL1        0.1661
     28 C          59.1625   95.8607   -5.4595 C.3     1  UNL1        0.0472
     29 C          59.5099   94.2528   -7.4704 C.3     1  UNL1        0.0472
@<TRIPOS>BOND
     1    11    12    1
     2    12    13   ar
     3    13    14   ar
     4    14     1    1
     5     1     2   ar
     6     2     3   ar
     7     3     4   ar
     8     4     5   ar
     9     4     6    1
    10     6     7    1
    11     7     8   am
    12     8     9    2
    13     8    18    1
    14    18    19   ar
    15    19    20   ar
    16    20    24    1
    17    24    25    3
    18    20    21   ar
    19    21    22   ar
    20    22    23   ar
    21    23    26    1
    22    26    27    1
    23    27    28    1
    24    27    29    1
    25     7    10    1
    26    14    15   ar
    27    15    16   ar
    28    16    17   ar
    29    17    12   ar
    30     5     1   ar
    31    23    18   ar
    32    10     3    1
