@<TRIPOS>MOLECULE
*****
 36 40 0 0 0
SMALL
GASTEIGER

@<TRIPOS>ATOM
      1 C          63.3225   90.0901   13.0620 C.ar    1  UNL1        0.0118
      2 C          63.8932   91.1394   12.1547 C.ar    1  UNL1        0.0007
      3 C          65.1580   91.8512   12.5335 C.ar    1  UNL1        0.0237
      4 C          65.8522   91.5137   13.8197 C.ar    1  UNL1        0.0051
      5 C          65.2815   90.4644   14.7270 C.ar    1  UNL1        0.0366
      6 C          64.0166   89.7526   14.3482 C.ar    1  UNL1        0.1345
      7 C          65.7287   92.9005   11.6262 C.ar    1  UNL1        0.1100
      8 N          66.2640   92.6741   10.2434 N.ar    1  UNL1       -0.2430
      9 C          66.7305   93.9941    9.7049 C.ar    1  UNL1        0.0615
     10 C          66.4834   95.0364   10.7549 C.ar    1  UNL1        0.0222
     11 S          65.8643   94.3606   11.9423 S.2     1  UNL1       -0.0712
     12 C          66.8542   96.4663   10.4942 C.3     1  UNL1        0.0342
     13 C          67.4719   96.8538    9.1834 C.3     1  UNL1        0.0057
     14 C          67.7189   95.8115    8.1334 C.3     1  UNL1        0.0067
     15 C          67.3482   94.3817    8.3941 C.3     1  UNL1        0.0460
     16 C          62.0576   89.3783   12.6832 C.3     1  UNL1        0.0294
     17 C          61.4518   89.9340   10.2185 C.3     1  UNL1        0.0004
     18 C          61.8423   88.9344   11.2667 C.3     1  UNL1        0.0048
     19 O          63.4459   88.7033   15.2555 O.3     1  UNL1       -0.4756
     20 C          63.1285   89.0380   16.6828 C.3     1  UNL1        0.2092
     21 C          62.9743   87.9409   17.6940 C.3     1  UNL1        0.0946
     22 C          62.3801   86.6247   17.2879 C.3     1  UNL1        0.2093
     23 O          63.2758   85.4798   16.9178 O.3     1  UNL1       -0.4753
     24 C          63.2968   84.9695   15.5074 C.ar    1  UNL1        0.1382
     25 C          63.7839   85.8530   14.3973 C.ar    1  UNL1        0.0366
     26 C          63.8049   85.3427   12.9870 C.ar    1  UNL1       -0.0015
     27 C          63.3388   83.9489   12.6867 C.ar    1  UNL1       -0.0259
     28 C          62.8518   83.0655   13.7967 C.ar    1  UNL1       -0.0231
     29 C          62.8307   83.5757   15.2071 C.ar    1  UNL1        0.0323
     30 C          62.4569   81.7470   13.2004 C.3     1  UNL1        0.0265
     31 C          62.6999   81.8156   11.7218 C.3     1  UNL1        0.0094
     32 C          63.2449   83.1764   11.4043 C.3     1  UNL1        0.0279
     33 C          63.6288   83.6770   10.0434 C.3     1  UNL1        0.0460
     34 C          62.9046   84.8449    9.4421 C.2     1  UNL1        0.0507
     35 O          63.2919   85.3488    8.0834 O.co2   1  UNL1       -0.5492
     36 O          61.7931   85.5089   10.1994 O.co2   1  UNL1       -0.5492
@<TRIPOS>UNITY_ATOM_ATTR
35 1
charge -1
@<TRIPOS>BOND
     1    17    18    1
     2    18    16    1
     3    16     1    1
     4     1     2   ar
     5     2     3   ar
     6     3     7    1
     7     7     8   ar
     8     8     9   ar
     9     9    10   ar
    10    10    11   ar
    11    10    12    1
    12    12    13    1
    13    13    14    1
    14    14    15    1
    15     3     4   ar
    16     4     5   ar
    17     5     6   ar
    18     6    19    1
    19    19    20    1
    20    20    21    1
    21    21    22    1
    22    22    23    1
    23    23    24    1
    24    24    25   ar
    25    25    26   ar
    26    26    27   ar
    27    27    28   ar
    28    28    29   ar
    29    28    30    1
    30    30    31    1
    31    31    32    1
    32    32    33    1
    33    33    34    1
    34    34    35   ar
    35    34    36   ar
    36     6     1   ar
    37    29    24   ar
    38    11     7   ar
    39    32    27    1
    40    15     9    1
@<TRIPOS>MOLECULE
*****
 36 40 0 0 0
SMALL
GASTEIGER

@<TRIPOS>ATOM
      1 C          63.1347   90.0096   12.7576 C.ar    1  UNL1        0.0118
      2 C          63.7655   91.0741   11.9097 C.ar    1  UNL1        0.0007
      3 C          64.9889   91.7930   12.3958 C.ar    1  UNL1        0.0237
      4 C          65.5816   91.4474   13.7296 C.ar    1  UNL1        0.0051
      5 C          64.9508   90.3829   14.5775 C.ar    1  UNL1        0.0366
      6 C          63.7273   89.6640   14.0915 C.ar    1  UNL1        0.1345
      7 C          65.6198   92.8575   11.5479 C.ar    1  UNL1        0.1100
      8 N          65.7329   94.3117   11.8980 N.ar    1  UNL1       -0.2430
      9 C          66.4313   95.0077   10.7675 C.ar    1  UNL1        0.0615
     10 C          66.7498   93.9836    9.7188 C.ar    1  UNL1        0.0222
     11 S          66.2482   92.6548   10.2011 S.2     1  UNL1       -0.0712
     12 C          67.4553   94.3935    8.4601 C.3     1  UNL1        0.0342
     13 C          67.8423   95.8274    8.2503 C.3     1  UNL1        0.0057
     14 C          67.5239   96.8514    9.2990 C.3     1  UNL1        0.0067
     15 C          66.8183   96.4416   10.5576 C.3     1  UNL1        0.0460
     16 C          61.9111   89.2906   12.2715 C.3     1  UNL1        0.0294
     17 C          59.5177   89.7821   11.3883 C.3     1  UNL1        0.0004
     18 C          60.5553   89.9024   12.4649 C.3     1  UNL1        0.0048
     19 O          63.0965   88.5995   14.9394 O.3     1  UNL1       -0.4756
     20 C          63.9596   87.6465   15.7119 C.3     1  UNL1        0.2092
     21 C          64.5105   86.4224   15.0427 C.3     1  UNL1        0.0946
     22 C          63.9402   85.0722   15.3619 C.3     1  UNL1        0.2093
     23 O          63.9558   83.9874   14.3260 O.3     1  UNL1       -0.4753
     24 C          63.5989   84.3034   12.9037 C.ar    1  UNL1        0.1382
     25 C          64.2405   83.5412   11.7824 C.ar    1  UNL1        0.0366
     26 C          63.8836   83.8571   10.3601 C.ar    1  UNL1       -0.0015
     27 C          62.8851   84.9352   10.0592 C.ar    1  UNL1       -0.0259
     28 C          62.2434   85.6974   11.1805 C.ar    1  UNL1       -0.0231
     29 C          62.6003   85.3815   12.6028 C.ar    1  UNL1        0.0323
     30 C          61.3009   86.6984   10.5809 C.3     1  UNL1        0.0265
     31 C          61.3600   86.5549    9.0889 C.3     1  UNL1        0.0094
     32 C          62.3390   85.4652    8.7665 C.3     1  UNL1        0.0279
     33 C          62.7075   84.9890    7.3927 C.3     1  UNL1        0.0460
     34 C          61.6325   84.6333    6.4089 C.2     1  UNL1        0.0507
     35 O          61.9917   83.9681    5.1133 O.co2   1  UNL1       -0.5492
     36 O          60.1983   84.9427    6.7205 O.co2   1  UNL1       -0.5492
@<TRIPOS>UNITY_ATOM_ATTR
35 1
charge -1
@<TRIPOS>BOND
     1    17    18    1
     2    18    16    1
     3    16     1    1
     4     1     2   ar
     5     2     3   ar
     6     3     7    1
     7     7     8   ar
     8     8     9   ar
     9     9    10   ar
    10    10    11   ar
    11    10    12    1
    12    12    13    1
    13    13    14    1
    14    14    15    1
    15     3     4   ar
    16     4     5   ar
    17     5     6   ar
    18     6    19    1
    19    19    20    1
    20    20    21    1
    21    21    22    1
    22    22    23    1
    23    23    24    1
    24    24    25   ar
    25    25    26   ar
    26    26    27   ar
    27    27    28   ar
    28    28    29   ar
    29    28    30    1
    30    30    31    1
    31    31    32    1
    32    32    33    1
    33    33    34    1
    34    34    35   ar
    35    34    36   ar
    36     6     1   ar
    37    29    24   ar
    38    11     7   ar
    39    32    27    1
    40    15     9    1
@<TRIPOS>MOLECULE
*****
 36 40 0 0 0
SMALL
GASTEIGER

@<TRIPOS>ATOM
      1 C          60.9521   89.4937   11.6175 C.ar    1  UNL1        0.0118
      2 C          62.0600   89.9814   12.5032 C.ar    1  UNL1        0.0007
      3 C          63.1648   90.8189   11.9304 C.ar    1  UNL1        0.0237
      4 C          63.1615   91.1686   10.4718 C.ar    1  UNL1        0.0051
      5 C          62.0535   90.6810    9.5860 C.ar    1  UNL1        0.0366
      6 C          60.9488   89.8435   10.1589 C.ar    1  UNL1        0.1345
      7 C          64.2727   91.3065   12.8161 C.ar    1  UNL1        0.1100
      8 N          64.1878   91.5189   14.2986 N.ar    1  UNL1       -0.2430
      9 C          65.5228   92.0111   14.7736 C.ar    1  UNL1        0.0615
     10 C          66.4328   92.1029   13.5847 C.ar    1  UNL1        0.0222
     11 S          65.6602   91.6675   12.3750 S.2     1  UNL1       -0.0712
     12 C          67.8473   92.5711   13.7574 C.3     1  UNL1        0.0342
     13 C          68.3518   92.9476   15.1189 C.3     1  UNL1        0.0057
     14 C          67.4418   92.8558   16.3077 C.3     1  UNL1        0.0067
     15 C          66.0272   92.3875   16.1351 C.3     1  UNL1        0.0460
     16 C          59.8473   88.6562   12.1904 C.3     1  UNL1        0.0294
     17 C          57.5286   88.4969   13.3517 C.3     1  UNL1        0.0004
     18 C          58.5647   89.3016   12.6242 C.3     1  UNL1        0.0048
     19 O          59.8408   89.3558    9.2731 O.3     1  UNL1       -0.4756
     20 C          60.1614   88.5933    8.0219 C.3     1  UNL1        0.2092
     21 C          59.5384   87.2501    7.7817 C.3     1  UNL1        0.0946
     22 C          60.4070   86.0362    7.6332 C.3     1  UNL1        0.2093
     23 O          61.8443   86.0857    8.0596 O.3     1  UNL1       -0.4753
     24 C          62.2588   85.4854    9.3702 C.ar    1  UNL1        0.1382
     25 C          61.7423   86.0609   10.6556 C.ar    1  UNL1        0.0366
     26 C          62.1569   85.4605   11.9662 C.ar    1  UNL1       -0.0015
     27 C          63.0880   84.2848   11.9915 C.ar    1  UNL1       -0.0259
     28 C          63.6045   83.7094   10.7062 C.ar    1  UNL1       -0.0231
     29 C          63.1900   84.3097    9.3955 C.ar    1  UNL1        0.0323
     30 C          64.5031   82.5563   11.0425 C.3     1  UNL1        0.0265
     31 C          64.5418   82.4192   12.5358 C.3     1  UNL1        0.0094
     32 C          63.6673   83.4874   13.1222 C.3     1  UNL1        0.0279
     33 C          63.4161   83.7178   14.5830 C.3     1  UNL1        0.0460
     34 C          63.7850   85.0298   15.2096 C.2     1  UNL1        0.0507
     35 O          65.0749   85.7007   14.8408 O.co2   1  UNL1       -0.5492
     36 O          62.8641   85.6709   16.2050 O.co2   1  UNL1       -0.5492
@<TRIPOS>UNITY_ATOM_ATTR
35 1
charge -1
@<TRIPOS>BOND
     1    17    18    1
     2    18    16    1
     3    16     1    1
     4     1     2   ar
     5     2     3   ar
     6     3     7    1
     7     7     8   ar
     8     8     9   ar
     9     9    10   ar
    10    10    11   ar
    11    10    12    1
    12    12    13    1
    13    13    14    1
    14    14    15    1
    15     3     4   ar
    16     4     5   ar
    17     5     6   ar
    18     6    19    1
    19    19    20    1
    20    20    21    1
    21    21    22    1
    22    22    23    1
    23    23    24    1
    24    24    25   ar
    25    25    26   ar
    26    26    27   ar
    27    27    28   ar
    28    28    29   ar
    29    28    30    1
    30    30    31    1
    31    31    32    1
    32    32    33    1
    33    33    34    1
    34    34    35   ar
    35    34    36   ar
    36     6     1   ar
    37    29    24   ar
    38    11     7   ar
    39    32    27    1
    40    15     9    1
@<TRIPOS>MOLECULE
*****
 36 40 0 0 0
SMALL
GASTEIGER

@<TRIPOS>ATOM
      1 C          61.6842   87.5760   10.3561 C.ar    1  UNL1        0.0118
      2 C          62.6943   88.3659   11.1345 C.ar    1  UNL1        0.0007
      3 C          62.4094   89.7919   11.5025 C.ar    1  UNL1        0.0237
      4 C          61.1144   90.4279   11.0922 C.ar    1  UNL1        0.0051
      5 C          60.1043   89.6380   10.3139 C.ar    1  UNL1        0.0366
      6 C          60.3893   88.2121    9.9458 C.ar    1  UNL1        0.1345
      7 C          63.4194   90.5817   12.2809 C.ar    1  UNL1        0.1100
      8 N          64.2945   91.6723   11.7378 N.ar    1  UNL1       -0.2430
      9 C          65.1477   92.1843   12.8603 C.ar    1  UNL1        0.0615
     10 C          64.7999   91.4102   14.0971 C.ar    1  UNL1        0.0222
     11 S          63.7318   90.4198   13.7390 S.2     1  UNL1       -0.0712
     12 C          65.5007   91.7072   15.3896 C.3     1  UNL1        0.0342
     13 C          66.5493   92.7783   15.4453 C.3     1  UNL1        0.0057
     14 C          66.8971   93.5524   14.2084 C.3     1  UNL1        0.0067
     15 C          66.1963   93.2554   12.9159 C.3     1  UNL1        0.0460
     16 C          61.9692   86.1500    9.9881 C.3     1  UNL1        0.0294
     17 C          62.0496   85.1472    7.5927 C.3     1  UNL1        0.0004
     18 C          62.7333   85.8370    8.7359 C.3     1  UNL1        0.0048
     19 O          59.3792   87.4222    9.1675 O.3     1  UNL1       -0.4756
     20 C          59.1089   87.7590    7.7310 C.3     1  UNL1        0.2092
     21 C          59.5352   89.0870    7.1790 C.3     1  UNL1        0.0946
     22 C          58.8721   89.6366    5.9509 C.3     1  UNL1        0.2093
     23 O          58.9128   91.1099    5.6721 O.3     1  UNL1       -0.4753
     24 C          59.8100   91.6450    4.5958 C.ar    1  UNL1        0.1382
     25 C          59.3007   92.6864    3.6438 C.ar    1  UNL1        0.0366
     26 C          60.1979   93.2216    2.5674 C.ar    1  UNL1       -0.0015
     27 C          61.6044   92.7154    2.4430 C.ar    1  UNL1       -0.0259
     28 C          62.1137   91.6741    3.3949 C.ar    1  UNL1       -0.0231
     29 C          61.2165   91.1389    4.4713 C.ar    1  UNL1        0.0323
     30 C          63.5360   91.3682    3.0298 C.3     1  UNL1        0.0265
     31 C          63.9058   92.2205    1.8521 C.3     1  UNL1        0.0094
     32 C          62.7120   93.0531    1.4895 C.3     1  UNL1        0.0279
     33 C          62.6386   94.0487    0.3699 C.3     1  UNL1        0.0460
     34 C          63.8141   94.2399   -0.5420 C.2     1  UNL1        0.0507
     35 O          64.9341   95.1532   -0.1404 O.co2   1  UNL1       -0.5492
     36 O          63.8696   93.5177   -1.8555 O.co2   1  UNL1       -0.5492
@<TRIPOS>UNITY_ATOM_ATTR
35 1
charge -1
@<TRIPOS>BOND
     1    17    18    1
     2    18    16    1
     3    16     1    1
     4     1     2   ar
     5     2     3   ar
     6     3     7    1
     7     7     8   ar
     8     8     9   ar
     9     9    10   ar
    10    10    11   ar
    11    10    12    1
    12    12    13    1
    13    13    14    1
    14    14    15    1
    15     3     4   ar
    16     4     5   ar
    17     5     6   ar
    18     6    19    1
    19    19    20    1
    20    20    21    1
    21    21    22    1
    22    22    23    1
    23    23    24    1
    24    24    25   ar
    25    25    26   ar
    26    26    27   ar
    27    27    28   ar
    28    28    29   ar
    29    28    30    1
    30    30    31    1
    31    31    32    1
    32    32    33    1
    33    33    34    1
    34    34    35   ar
    35    34    36   ar
    36     6     1   ar
    37    29    24   ar
    38    11     7   ar
    39    32    27    1
    40    15     9    1
@<TRIPOS>MOLECULE
*****
 36 40 0 0 0
SMALL
GASTEIGER

@<TRIPOS>ATOM
      1 C          61.2034   89.1494    9.6829 C.ar    1  UNL1        0.0118
      2 C          61.7989   88.0400   10.4981 C.ar    1  UNL1        0.0007
      3 C          61.4685   86.6125   10.1768 C.ar    1  UNL1        0.0237
      4 C          60.5426   86.2946    9.0404 C.ar    1  UNL1        0.0051
      5 C          59.9470   87.4040    8.2252 C.ar    1  UNL1        0.0366
      6 C          60.2774   88.8314    8.5465 C.ar    1  UNL1        0.1345
      7 C          62.0640   85.5031   10.9919 C.ar    1  UNL1        0.1100
      8 N          61.9992   85.3731   12.4849 N.ar    1  UNL1       -0.2430
      9 C          62.7240   84.1185   12.8729 C.ar    1  UNL1        0.0615
     10 C          63.2369   83.4731   11.6198 C.ar    1  UNL1        0.0222
     11 S          62.8289   84.3288   10.4573 S.2     1  UNL1       -0.0712
     12 C          64.0090   82.1895   11.6991 C.3     1  UNL1        0.0342
     13 C          64.2683   81.5515   13.0316 C.3     1  UNL1        0.0057
     14 C          63.7555   82.1969   14.2848 C.3     1  UNL1        0.0067
     15 C          62.9833   83.4805   14.2054 C.3     1  UNL1        0.0460
     16 C          61.5338   90.5769   10.0043 C.3     1  UNL1        0.0294
     17 C          63.5144   91.0824   11.6079 C.3     1  UNL1        0.0004
     18 C          62.9609   90.9868   10.2170 C.3     1  UNL1        0.0048
     19 O          59.6819   89.9409    7.7314 O.3     1  UNL1       -0.4756
     20 C          59.4044   89.7337    6.2719 C.3     1  UNL1        0.2092
     21 C          58.6779   90.7873    5.4896 C.3     1  UNL1        0.0946
     22 C          59.4479   91.8764    4.8033 C.3     1  UNL1        0.2093
     23 O          58.9924   92.3912    3.4700 O.3     1  UNL1       -0.4753
     24 C          60.0023   92.7911    2.4356 C.ar    1  UNL1        0.1382
     25 C          59.5486   93.3795    1.1325 C.ar    1  UNL1        0.0366
     26 C          60.5585   93.7794    0.0981 C.ar    1  UNL1       -0.0015
     27 C          62.0222   93.5908    0.3666 C.ar    1  UNL1       -0.0259
     28 C          62.4759   93.0024    1.6696 C.ar    1  UNL1       -0.0231
     29 C          61.4660   92.6025    2.7041 C.ar    1  UNL1        0.0323
     30 C          63.9743   92.9366    1.6517 C.3     1  UNL1        0.0265
     31 C          64.4467   93.4843    0.3376 C.3     1  UNL1        0.0094
     32 C          63.2402   93.8887   -0.4566 C.3     1  UNL1        0.0279
     33 C          63.2499   94.4860   -1.8325 C.3     1  UNL1        0.0460
     34 C          63.0236   93.6127   -3.0309 C.2     1  UNL1        0.0507
     35 O          64.0044   92.5279   -3.3643 O.co2   1  UNL1       -0.5492
     36 O          61.8165   93.8241   -3.8959 O.co2   1  UNL1       -0.5492
@<TRIPOS>UNITY_ATOM_ATTR
35 1
charge -1
@<TRIPOS>BOND
     1    17    18    1
     2    18    16    1
     3    16     1    1
     4     1     2   ar
     5     2     3   ar
     6     3     7    1
     7     7     8   ar
     8     8     9   ar
     9     9    10   ar
    10    10    11   ar
    11    10    12    1
    12    12    13    1
    13    13    14    1
    14    14    15    1
    15     3     4   ar
    16     4     5   ar
    17     5     6   ar
    18     6    19    1
    19    19    20    1
    20    20    21    1
    21    21    22    1
    22    22    23    1
    23    23    24    1
    24    24    25   ar
    25    25    26   ar
    26    26    27   ar
    27    27    28   ar
    28    28    29   ar
    29    28    30    1
    30    30    31    1
    31    31    32    1
    32    32    33    1
    33    33    34    1
    34    34    35   ar
    35    34    36   ar
    36     6     1   ar
    37    29    24   ar
    38    11     7   ar
    39    32    27    1
    40    15     9    1
@<TRIPOS>MOLECULE
*****
 36 40 0 0 0
SMALL
GASTEIGER

@<TRIPOS>ATOM
      1 C          60.6982   89.3571    9.4921 C.ar    1  UNL1        0.0118
      2 C          61.6627   90.2281   10.2412 C.ar    1  UNL1        0.0007
      3 C          62.5364   89.6358   11.3069 C.ar    1  UNL1        0.0237
      4 C          62.4456   88.1725   11.6236 C.ar    1  UNL1        0.0051
      5 C          61.4811   87.3014   10.8745 C.ar    1  UNL1        0.0366
      6 C          60.6074   87.8937    9.8088 C.ar    1  UNL1        0.1345
      7 C          63.5008   90.5069   12.0559 C.ar    1  UNL1        0.1100
      8 N          64.2698   91.6625   11.4875 N.ar    1  UNL1       -0.2430
      9 C          65.1099   92.2451   12.5852 C.ar    1  UNL1        0.0615
     10 C          64.8601   91.4495   13.8320 C.ar    1  UNL1        0.0222
     11 S          63.8656   90.3752   13.5049 S.2     1  UNL1       -0.0712
     12 C          65.5704   91.8060   15.1041 C.3     1  UNL1        0.0342
     13 C          66.5306   92.9581   15.1294 C.3     1  UNL1        0.0057
     14 C          66.7804   93.7537   13.8825 C.3     1  UNL1        0.0067
     15 C          66.0701   93.3972   12.6104 C.3     1  UNL1        0.0460
     16 C          59.8245   89.9494    8.4263 C.3     1  UNL1        0.0294
     17 C          59.2093   90.0890    5.9060 C.3     1  UNL1        0.0004
     18 C          59.7700   89.3204    7.0657 C.3     1  UNL1        0.0048
     19 O          59.6429   87.0227    9.0597 O.3     1  UNL1       -0.4756
     20 C          60.1555   85.9421    8.1544 C.3     1  UNL1        0.2092
     21 C          61.5879   85.9532    7.7096 C.3     1  UNL1        0.0946
     22 C          62.3333   84.6614    7.5485 C.3     1  UNL1        0.2093
     23 O          63.4971   84.3506    8.4423 O.3     1  UNL1       -0.4753
     24 C          63.2596   83.8771    9.8456 C.ar    1  UNL1        0.1382
     25 C          63.0170   84.8718   10.9419 C.ar    1  UNL1        0.0366
     26 C          62.7795   84.3982   12.3452 C.ar    1  UNL1       -0.0015
     27 C          62.7846   82.9300   12.6523 C.ar    1  UNL1       -0.0259
     28 C          63.0273   81.9353   11.5561 C.ar    1  UNL1       -0.0231
     29 C          63.2648   82.4089   10.1527 C.ar    1  UNL1        0.0323
     30 C          62.9747   80.5618   12.1565 C.3     1  UNL1        0.0265
     31 C          62.6996   80.7076   13.6238 C.3     1  UNL1        0.0094
     32 C          62.5821   82.1712   13.9302 C.3     1  UNL1        0.0279
     33 C          62.3099   82.7708   15.2780 C.3     1  UNL1        0.0460
     34 C          62.7298   84.1809   15.5701 C.2     1  UNL1        0.0507
     35 O          61.6963   85.2206   15.8879 O.co2   1  UNL1       -0.5492
     36 O          64.1830   84.5513   15.5446 O.co2   1  UNL1       -0.5492
@<TRIPOS>UNITY_ATOM_ATTR
35 1
charge -1
@<TRIPOS>BOND
     1    17    18    1
     2    18    16    1
     3    16     1    1
     4     1     2   ar
     5     2     3   ar
     6     3     7    1
     7     7     8   ar
     8     8     9   ar
     9     9    10   ar
    10    10    11   ar
    11    10    12    1
    12    12    13    1
    13    13    14    1
    14    14    15    1
    15     3     4   ar
    16     4     5   ar
    17     5     6   ar
    18     6    19    1
    19    19    20    1
    20    20    21    1
    21    21    22    1
    22    22    23    1
    23    23    24    1
    24    24    25   ar
    25    25    26   ar
    26    26    27   ar
    27    27    28   ar
    28    28    29   ar
    29    28    30    1
    30    30    31    1
    31    31    32    1
    32    32    33    1
    33    33    34    1
    34    34    35   ar
    35    34    36   ar
    36     6     1   ar
    37    29    24   ar
    38    11     7   ar
    39    32    27    1
    40    15     9    1
@<TRIPOS>MOLECULE
*****
 36 40 0 0 0
SMALL
GASTEIGER

@<TRIPOS>ATOM
      1 C          61.3970   89.1384    9.7274 C.ar    1  UNL1        0.0118
      2 C          61.9310   88.0248   10.5787 C.ar    1  UNL1        0.0007
      3 C          61.5167   86.6089   10.3079 C.ar    1  UNL1        0.0237
      4 C          60.5684   86.3066    9.1858 C.ar    1  UNL1        0.0051
      5 C          60.0344   87.4202    8.3344 C.ar    1  UNL1        0.0366
      6 C          60.4487   88.8361    8.6053 C.ar    1  UNL1        0.1345
      7 C          62.0507   85.4953   11.1592 C.ar    1  UNL1        0.1100
      8 N          62.1003   85.4774   12.6583 N.ar    1  UNL1       -0.2430
      9 C          62.7091   84.1751   13.0865 C.ar    1  UNL1        0.0615
     10 C          63.0357   83.3880   11.8520 C.ar    1  UNL1        0.0222
     11 S          62.6288   84.2040   10.6609 S.2     1  UNL1       -0.0712
     12 C          63.6615   82.0301   11.9721 C.3     1  UNL1        0.0342
     13 C          63.9606   81.4593   13.3265 C.3     1  UNL1        0.0057
     14 C          63.6339   82.2463   14.5610 C.3     1  UNL1        0.0067
     15 C          63.0082   83.6042   14.4409 C.3     1  UNL1        0.0460
     16 C          61.8114   90.5544    9.9983 C.3     1  UNL1        0.0294
     17 C          64.0488   91.7625   10.5320 C.3     1  UNL1        0.0004
     18 C          62.9417   90.8375   10.9429 C.3     1  UNL1        0.0048
     19 O          59.9148   89.9497    7.7540 O.3     1  UNL1       -0.4756
     20 C          59.3483   89.6514    6.3975 C.3     1  UNL1        0.2092
     21 C          58.7708   90.7581    5.5659 C.3     1  UNL1        0.0946
     22 C          59.6800   91.6798    4.8083 C.3     1  UNL1        0.2093
     23 O          59.1374   92.5118    3.6844 O.3     1  UNL1       -0.4753
     24 C          59.9776   92.7701    2.4689 C.ar    1  UNL1        0.1382
     25 C          61.4738   92.7310    2.5693 C.ar    1  UNL1        0.0366
     26 C          62.3140   92.9892    1.3538 C.ar    1  UNL1       -0.0015
     27 C          61.6581   93.2865    0.0380 C.ar    1  UNL1       -0.0259
     28 C          60.1620   93.3256   -0.0624 C.ar    1  UNL1       -0.0231
     29 C          59.3217   93.0674    1.1531 C.ar    1  UNL1        0.0323
     30 C          59.8008   93.6428   -1.4833 C.3     1  UNL1        0.0265
     31 C          61.0738   93.7997   -2.2611 C.3     1  UNL1        0.0094
     32 C          62.2216   93.5795   -1.3209 C.3     1  UNL1        0.0279
     33 C          63.6774   93.6414   -1.6770 C.3     1  UNL1        0.0460
     34 C          64.4541   94.9028   -1.4414 C.2     1  UNL1        0.0507
     35 O          64.5103   95.9587   -2.5054 O.co2   1  UNL1       -0.5492
     36 O          65.1747   95.1084   -0.1420 O.co2   1  UNL1       -0.5492
@<TRIPOS>UNITY_ATOM_ATTR
35 1
charge -1
@<TRIPOS>BOND
     1    17    18    1
     2    18    16    1
     3    16     1    1
     4     1     2   ar
     5     2     3   ar
     6     3     7    1
     7     7     8   ar
     8     8     9   ar
     9     9    10   ar
    10    10    11   ar
    11    10    12    1
    12    12    13    1
    13    13    14    1
    14    14    15    1
    15     3     4   ar
    16     4     5   ar
    17     5     6   ar
    18     6    19    1
    19    19    20    1
    20    20    21    1
    21    21    22    1
    22    22    23    1
    23    23    24    1
    24    24    25   ar
    25    25    26   ar
    26    26    27   ar
    27    27    28   ar
    28    28    29   ar
    29    28    30    1
    30    30    31    1
    31    31    32    1
    32    32    33    1
    33    33    34    1
    34    34    35   ar
    35    34    36   ar
    36     6     1   ar
    37    29    24   ar
    38    11     7   ar
    39    32    27    1
    40    15     9    1
@<TRIPOS>MOLECULE
*****
 36 40 0 0 0
SMALL
GASTEIGER

@<TRIPOS>ATOM
      1 C          63.1709   84.2492   14.4451 C.ar    1  UNL1        0.0118
      2 C          62.7564   84.2050   13.0042 C.ar    1  UNL1        0.0007
      3 C          62.9299   85.4161   12.1364 C.ar    1  UNL1        0.0237
      4 C          63.5180   86.6714   12.7095 C.ar    1  UNL1        0.0051
      5 C          63.9325   86.7155   14.1504 C.ar    1  UNL1        0.0366
      6 C          63.7590   85.5045   15.0182 C.ar    1  UNL1        0.1345
      7 C          62.5154   85.3719   10.6955 C.ar    1  UNL1        0.1100
      8 N          63.2618   84.6962    9.5836 N.ar    1  UNL1       -0.2430
      9 C          62.4893   84.9024    8.3144 C.ar    1  UNL1        0.0615
     10 C          61.2655   85.7055    8.6419 C.ar    1  UNL1        0.0222
     11 S          61.2816   85.9957   10.1134 S.2     1  UNL1       -0.0712
     12 C          60.2947   86.0688    7.5578 C.3     1  UNL1        0.0342
     13 C          60.5476   85.6290    6.1462 C.3     1  UNL1        0.0057
     14 C          61.7714   84.8258    5.8188 C.3     1  UNL1        0.0067
     15 C          62.7423   84.4625    6.9029 C.3     1  UNL1        0.0460
     16 C          62.9974   83.0380   15.3129 C.3     1  UNL1        0.0294
     17 C          61.4575   81.2349   14.2511 C.3     1  UNL1        0.0004
     18 C          62.8198   81.6864   14.6874 C.3     1  UNL1        0.0048
     19 O          64.1735   85.5486   16.4591 O.3     1  UNL1       -0.4756
     20 C          63.1942   85.9846   17.5083 C.3     1  UNL1        0.2092
     21 C          62.4265   87.2614   17.3335 C.3     1  UNL1        0.0946
     22 C          63.1372   88.5111   16.9052 C.3     1  UNL1        0.2093
     23 O          62.4551   89.4861   15.9920 O.3     1  UNL1       -0.4753
     24 C          63.2443   90.2054   14.9386 C.ar    1  UNL1        0.1382
     25 C          64.5115   90.9187   15.3070 C.ar    1  UNL1        0.0366
     26 C          65.3007   91.6379   14.2536 C.ar    1  UNL1       -0.0015
     27 C          64.8229   91.6440   12.8318 C.ar    1  UNL1       -0.0259
     28 C          63.5559   90.9307   12.4633 C.ar    1  UNL1       -0.0231
     29 C          62.7666   90.2114   13.5167 C.ar    1  UNL1        0.0323
     30 C          63.3353   91.1085   10.9903 C.3     1  UNL1        0.0265
     31 C          64.4661   91.9317   10.4484 C.3     1  UNL1        0.0094
     32 C          65.3855   92.2626   11.5865 C.3     1  UNL1        0.0279
     33 C          66.6462   93.0704   11.4953 C.3     1  UNL1        0.0460
     34 C          66.6927   94.2924   10.6268 C.2     1  UNL1        0.0507
     35 O          67.8776   94.5379    9.7404 O.co2   1  UNL1       -0.5492
     36 O          65.5544   95.2690   10.6446 O.co2   1  UNL1       -0.5492
@<TRIPOS>UNITY_ATOM_ATTR
35 1
charge -1
@<TRIPOS>BOND
     1    17    18    1
     2    18    16    1
     3    16     1    1
     4     1     2   ar
     5     2     3   ar
     6     3     7    1
     7     7     8   ar
     8     8     9   ar
     9     9    10   ar
    10    10    11   ar
    11    10    12    1
    12    12    13    1
    13    13    14    1
    14    14    15    1
    15     3     4   ar
    16     4     5   ar
    17     5     6   ar
    18     6    19    1
    19    19    20    1
    20    20    21    1
    21    21    22    1
    22    22    23    1
    23    23    24    1
    24    24    25   ar
    25    25    26   ar
    26    26    27   ar
    27    27    28   ar
    28    28    29   ar
    29    28    30    1
    30    30    31    1
    31    31    32    1
    32    32    33    1
    33    33    34    1
    34    34    35   ar
    35    34    36   ar
    36     6     1   ar
    37    29    24   ar
    38    11     7   ar
    39    32    27    1
    40    15     9    1
@<TRIPOS>MOLECULE
*****
 36 40 0 0 0
SMALL
GASTEIGER

@<TRIPOS>ATOM
      1 C          63.4924   88.5231   13.0356 C.ar    1  UNL1        0.0118
      2 C          63.2321   87.0920   12.6692 C.ar    1  UNL1        0.0007
      3 C          63.7162   85.9890   13.5631 C.ar    1  UNL1        0.0237
      4 C          64.4605   86.3171   14.8233 C.ar    1  UNL1        0.0051
      5 C          64.7208   87.7482   15.1897 C.ar    1  UNL1        0.0366
      6 C          64.2367   88.8512   14.2958 C.ar    1  UNL1        0.1345
      7 C          63.4559   84.5579   13.1967 C.ar    1  UNL1        0.1100
      8 N          63.6055   83.9562   11.8308 N.ar    1  UNL1       -0.2430
      9 C          63.2424   82.5037   11.9218 C.ar    1  UNL1        0.0615
     10 C          62.8685   82.2076   13.3440 C.ar    1  UNL1        0.0222
     11 S          63.0004   83.4772   14.1319 S.2     1  UNL1       -0.0712
     12 C          62.4561   80.8202   13.7378 C.3     1  UNL1        0.0342
     13 C          62.4177   79.7289   12.7094 C.3     1  UNL1        0.0057
     14 C          62.7917   80.0250   11.2873 C.3     1  UNL1        0.0067
     15 C          63.2040   81.4124   10.8935 C.3     1  UNL1        0.0460
     16 C          63.0082   89.6261   12.1416 C.3     1  UNL1        0.0294
     17 C          63.7552   91.6097   10.6391 C.3     1  UNL1        0.0004
     18 C          63.8580   90.8429   11.9243 C.3     1  UNL1        0.0048
     19 O          64.4970   90.2823   14.6622 O.3     1  UNL1       -0.4756
     20 C          63.7583   90.9096   15.8070 C.3     1  UNL1        0.2092
     21 C          64.1979   92.2391   16.3448 C.3     1  UNL1        0.0946
     22 C          65.4740   92.3474   17.1260 C.3     1  UNL1        0.2093
     23 O          66.7280   92.8199   16.4521 O.3     1  UNL1       -0.4753
     24 C          66.8072   92.8553   14.9547 C.ar    1  UNL1        0.1382
     25 C          67.3920   91.6939   14.2068 C.ar    1  UNL1        0.0366
     26 C          67.4712   91.7293   12.7094 C.ar    1  UNL1       -0.0015
     27 C          66.9655   92.9261   11.9597 C.ar    1  UNL1       -0.0259
     28 C          66.3806   94.0874   12.7074 C.ar    1  UNL1       -0.0231
     29 C          66.3015   94.0521   14.2050 C.ar    1  UNL1        0.0323
     30 C          65.9657   95.1228   11.7046 C.3     1  UNL1        0.0265
     31 C          66.2941   94.6014   10.3370 C.3     1  UNL1        0.0094
     32 C          66.9120   93.2437   10.4947 C.3     1  UNL1        0.0279
     33 C          67.3921   92.3590    9.3826 C.3     1  UNL1        0.0460
     34 C          68.8286   92.4067    8.9533 C.2     1  UNL1        0.0507
     35 O          69.8108   93.2487    9.7125 O.co2   1  UNL1       -0.5492
     36 O          69.2830   91.6124    7.7648 O.co2   1  UNL1       -0.5492
@<TRIPOS>UNITY_ATOM_ATTR
35 1
charge -1
@<TRIPOS>BOND
     1    17    18    1
     2    18    16    1
     3    16     1    1
     4     1     2   ar
     5     2     3   ar
     6     3     7    1
     7     7     8   ar
     8     8     9   ar
     9     9    10   ar
    10    10    11   ar
    11    10    12    1
    12    12    13    1
    13    13    14    1
    14    14    15    1
    15     3     4   ar
    16     4     5   ar
    17     5     6   ar
    18     6    19    1
    19    19    20    1
    20    20    21    1
    21    21    22    1
    22    22    23    1
    23    23    24    1
    24    24    25   ar
    25    25    26   ar
    26    26    27   ar
    27    27    28   ar
    28    28    29   ar
    29    28    30    1
    30    30    31    1
    31    31    32    1
    32    32    33    1
    33    33    34    1
    34    34    35   ar
    35    34    36   ar
    36     6     1   ar
    37    29    24   ar
    38    11     7   ar
    39    32    27    1
    40    15     9    1
