@<TRIPOS>MOLECULE
*****
 14 15 0 0 0
SMALL
GASTEIGER

@<TRIPOS>ATOM
      1 N          67.6699   95.7745    8.3636 N.pl3   1  UNL1       -0.3521
      2 C          67.5768   94.5349    9.2031 C.ar    1  UNL1        0.0719
      3 C          68.2847   93.2383    8.9426 C.ar    1  UNL1        0.0213
      4 C          67.9048   92.2764   10.0290 C.ar    1  UNL1        0.0083
      5 C          66.9620   92.9785   10.9610 C.ar    1  UNL1        0.0322
      6 S          66.7594   94.3743   10.4505 S.2     1  UNL1       -0.0727
      7 H          68.2363   95.7822    7.5584 H       1  UNL1        0.1428
      8 H          67.1647   96.5803    8.6178 H       1  UNL1        0.1428
      9 C          66.3326   92.3882   12.1880 C.ar    1  UNL1        0.0252
     10 C          67.1744   92.0890   13.3928 C.ar    1  UNL1        0.0036
     11 C          66.5449   91.4988   14.6197 C.ar    1  UNL1        0.0207
     12 C          65.0736   91.2079   14.6418 C.ar    1  UNL1        0.0989
     13 N          64.2317   91.5071   13.4370 N.ar    1  UNL1       -0.2423
     14 C          64.8612   92.0973   12.2100 C.ar    1  UNL1        0.0993
@<TRIPOS>BOND
     1     1     2    1
     2     2     3   ar
     3     3     4   ar
     4     4     5   ar
     5     5     9    1
     6     9    10   ar
     7    10    11   ar
     8    11    12   ar
     9    12    13   ar
    10    13    14   ar
    11     5     6   ar
    12     6     2   ar
    13    14     9   ar
    14     1     7    1
    15     1     8    1
@<TRIPOS>MOLECULE
*****
 14 15 0 0 0
SMALL
GASTEIGER

@<TRIPOS>ATOM
      1 N          58.6978   86.4126    7.4719 N.pl3   1  UNL1       -0.3521
      2 C          59.9813   86.6771    8.2018 C.ar    1  UNL1        0.0719
      3 C          61.2288   85.8480    8.1206 C.ar    1  UNL1        0.0213
      4 C          62.2611   86.4757    9.0096 C.ar    1  UNL1        0.0083
      5 C          61.6517   87.6927    9.6401 C.ar    1  UNL1        0.0322
      6 S          60.2427   87.8172    9.1409 S.2     1  UNL1       -0.0727
      7 H          58.6230   85.6340    6.8740 H       1  UNL1        0.1428
      8 H          57.9302   87.0175    7.5908 H       1  UNL1        0.1428
      9 C          62.3319   88.6221   10.6013 C.ar    1  UNL1        0.0252
     10 C          62.5564   90.0568   10.2256 C.ar    1  UNL1        0.0036
     11 C          63.2365   90.9861   11.1867 C.ar    1  UNL1        0.0207
     12 C          63.6923   90.4806   12.5234 C.ar    1  UNL1        0.0989
     13 N          63.4678   89.0459   12.8991 N.ar    1  UNL1       -0.2423
     14 C          62.7876   88.1167   11.9380 C.ar    1  UNL1        0.0993
@<TRIPOS>BOND
     1     1     2    1
     2     2     3   ar
     3     3     4   ar
     4     4     5   ar
     5     5     9    1
     6     9    10   ar
     7    10    11   ar
     8    11    12   ar
     9    12    13   ar
    10    13    14   ar
    11     5     6   ar
    12     6     2   ar
    13    14     9   ar
    14     1     7    1
    15     1     8    1
@<TRIPOS>MOLECULE
*****
 14 15 0 0 0
SMALL
GASTEIGER

@<TRIPOS>ATOM
      1 N          62.7476   90.1270   13.9853 N.pl3   1  UNL1       -0.3521
      2 C          64.0161   90.8562   13.6548 C.ar    1  UNL1        0.0719
      3 C          65.2264   90.9634   14.5345 C.ar    1  UNL1        0.0213
      4 C          66.2552   91.7797   13.8099 C.ar    1  UNL1        0.0083
      5 C          65.6808   92.1771   12.4824 C.ar    1  UNL1        0.0322
      6 S          64.2970   91.6064   12.3866 S.2     1  UNL1       -0.0727
      7 H          62.6578   89.6618   14.8483 H       1  UNL1        0.1428
      8 H          62.0049   90.1135   13.3392 H       1  UNL1        0.1428
      9 C          66.3694   93.0007   11.4347 C.ar    1  UNL1        0.0252
     10 C          67.2689   92.3399   10.4327 C.ar    1  UNL1        0.0036
     11 C          67.9575   93.1635    9.3850 C.ar    1  UNL1        0.0207
     12 C          67.7466   94.6479    9.3395 C.ar    1  UNL1        0.0989
     13 N          66.8470   95.3087   10.3415 N.ar    1  UNL1       -0.2423
     14 C          66.1585   94.4851   11.3891 C.ar    1  UNL1        0.0993
@<TRIPOS>BOND
     1     1     2    1
     2     2     3   ar
     3     3     4   ar
     4     4     5   ar
     5     5     9    1
     6     9    10   ar
     7    10    11   ar
     8    11    12   ar
     9    12    13   ar
    10    13    14   ar
    11     5     6   ar
    12     6     2   ar
    13    14     9   ar
    14     1     7    1
    15     1     8    1
@<TRIPOS>MOLECULE
*****
 14 15 0 0 0
SMALL
GASTEIGER

@<TRIPOS>ATOM
      1 N          60.2626   90.1005    9.6811 N.pl3   1  UNL1       -0.3521
      2 C          60.5878   88.6430    9.5400 C.ar    1  UNL1        0.0719
      3 C          59.9691   87.6926    8.5581 C.ar    1  UNL1        0.0213
      4 C          60.5878   86.3423    8.7672 C.ar    1  UNL1        0.0083
      5 C          61.5888   86.4581    9.8783 C.ar    1  UNL1        0.0322
      6 S          61.5888   87.8800   10.3559 S.2     1  UNL1       -0.0727
      7 H          59.5868   90.5130    9.0959 H       1  UNL1        0.1428
      8 H          60.7248   90.6446   10.3590 H       1  UNL1        0.1428
      9 C          62.4404   85.3469   10.4172 C.ar    1  UNL1        0.0252
     10 C          63.2420   84.4939    9.4793 C.ar    1  UNL1        0.0036
     11 C          64.0935   83.3828   10.0182 C.ar    1  UNL1        0.0207
     12 C          64.1433   83.1248   11.4950 C.ar    1  UNL1        0.0989
     13 N          63.3417   83.9778   12.4329 N.ar    1  UNL1       -0.2423
     14 C          62.4902   85.0889   11.8940 C.ar    1  UNL1        0.0993
@<TRIPOS>BOND
     1     1     2    1
     2     2     3   ar
     3     3     4   ar
     4     4     5   ar
     5     5     9    1
     6     9    10   ar
     7    10    11   ar
     8    11    12   ar
     9    12    13   ar
    10    13    14   ar
    11     5     6   ar
    12     6     2   ar
    13    14     9   ar
    14     1     7    1
    15     1     8    1
@<TRIPOS>MOLECULE
*****
 14 15 0 0 0
SMALL
GASTEIGER

@<TRIPOS>ATOM
      1 N          64.2982   83.1442   15.6031 N.pl3   1  UNL1       -0.3521
      2 C          63.7955   83.1312   14.1899 C.ar    1  UNL1        0.0719
      3 C          63.4961   81.9100   13.3718 C.ar    1  UNL1        0.0213
      4 C          63.0195   82.3611   12.0230 C.ar    1  UNL1        0.0083
      5 C          63.0245   83.8611   12.0074 C.ar    1  UNL1        0.0322
      6 S          63.5040   84.3369   13.3466 S.2     1  UNL1       -0.0727
      7 H          64.4603   82.2959   16.0757 H       1  UNL1        0.1428
      8 H          64.4659   84.0010   16.0580 H       1  UNL1        0.1428
      9 C          62.6207   84.7322   10.8549 C.ar    1  UNL1        0.0252
     10 C          63.2590   84.5414    9.5110 C.ar    1  UNL1        0.0036
     11 C          62.8552   85.4125    8.3585 C.ar    1  UNL1        0.0207
     12 C          61.8131   86.4743    8.5500 C.ar    1  UNL1        0.0989
     13 N          61.1748   86.6650    9.8939 N.ar    1  UNL1       -0.2423
     14 C          61.5786   85.7940   11.0464 C.ar    1  UNL1        0.0993
@<TRIPOS>BOND
     1     1     2    1
     2     2     3   ar
     3     3     4   ar
     4     4     5   ar
     5     5     9    1
     6     9    10   ar
     7    10    11   ar
     8    11    12   ar
     9    12    13   ar
    10    13    14   ar
    11     5     6   ar
    12     6     2   ar
    13    14     9   ar
    14     1     7    1
    15     1     8    1
@<TRIPOS>MOLECULE
*****
 14 15 0 0 0
SMALL
GASTEIGER

@<TRIPOS>ATOM
      1 N          61.1907   88.2847   11.4981 N.pl3   1  UNL1       -0.3521
      2 C          62.1610   89.4265   11.4289 C.ar    1  UNL1        0.0719
      3 C          62.3791   90.3281   10.2500 C.ar    1  UNL1        0.0213
      4 C          63.4364   91.3260   10.6191 C.ar    1  UNL1        0.0083
      5 C          63.8718   91.0412   12.0260 C.ar    1  UNL1        0.0322
      6 S          63.0836   89.8673   12.5265 S.2     1  UNL1       -0.0727
      7 H          60.6248   88.0718   10.7211 H       1  UNL1        0.1428
      8 H          61.1198   87.7481   12.3204 H       1  UNL1        0.1428
      9 C          64.9127   91.7976   12.7970 C.ar    1  UNL1        0.0252
     10 C          65.2554   91.3854   14.1979 C.ar    1  UNL1        0.0036
     11 C          66.2963   92.1417   14.9688 C.ar    1  UNL1        0.0207
     12 C          66.9945   93.3104   14.3389 C.ar    1  UNL1        0.0989
     13 N          66.6518   93.7227   12.9380 N.ar    1  UNL1       -0.2423
     14 C          65.6109   92.9663   12.1671 C.ar    1  UNL1        0.0993
@<TRIPOS>BOND
     1     1     2    1
     2     2     3   ar
     3     3     4   ar
     4     4     5   ar
     5     5     9    1
     6     9    10   ar
     7    10    11   ar
     8    11    12   ar
     9    12    13   ar
    10    13    14   ar
    11     5     6   ar
    12     6     2   ar
    13    14     9   ar
    14     1     7    1
    15     1     8    1
@<TRIPOS>MOLECULE
*****
 14 15 0 0 0
SMALL
GASTEIGER

@<TRIPOS>ATOM
      1 N          63.8033   82.9108   12.7223 N.pl3   1  UNL1       -0.3521
      2 C          63.4417   83.7070   11.5035 C.ar    1  UNL1        0.0719
      3 C          63.9410   83.4623   10.1104 C.ar    1  UNL1        0.0213
      4 C          63.3251   84.4918    9.2098 C.ar    1  UNL1        0.0083
      5 C          62.4452   85.3726   10.0464 C.ar    1  UNL1        0.0322
      6 S          62.5172   84.8876   11.4640 S.2     1  UNL1       -0.0727
      7 H          64.4222   82.1488   12.6467 H       1  UNL1        0.1428
      8 H          63.4219   83.1502   13.5977 H       1  UNL1        0.1428
      9 C          61.6354   86.5346    9.5522 C.ar    1  UNL1        0.0252
     10 C          60.5146   86.3087    8.5812 C.ar    1  UNL1        0.0036
     11 C          59.7049   87.4706    8.0870 C.ar    1  UNL1        0.0207
     12 C          60.0159   88.8583    8.5637 C.ar    1  UNL1        0.0989
     13 N          61.1367   89.0843    9.5347 N.ar    1  UNL1       -0.2423
     14 C          61.9464   87.9224   10.0289 C.ar    1  UNL1        0.0993
@<TRIPOS>BOND
     1     1     2    1
     2     2     3   ar
     3     3     4   ar
     4     4     5   ar
     5     5     9    1
     6     9    10   ar
     7    10    11   ar
     8    11    12   ar
     9    12    13   ar
    10    13    14   ar
    11     5     6   ar
    12     6     2   ar
    13    14     9   ar
    14     1     7    1
    15     1     8    1
@<TRIPOS>MOLECULE
*****
 14 15 0 0 0
SMALL
GASTEIGER

@<TRIPOS>ATOM
      1 N          61.2877   87.8492    9.3203 N.pl3   1  UNL1       -0.3521
      2 C          61.9710   86.5453    9.6083 C.ar    1  UNL1        0.0719
      3 C          62.7851   85.7430    8.6368 C.ar    1  UNL1        0.0213
      4 C          63.2774   84.5167    9.3465 C.ar    1  UNL1        0.0083
      5 C          62.7676   84.5610   10.7565 C.ar    1  UNL1        0.0322
      6 S          61.9602   85.8147   10.9183 S.2     1  UNL1       -0.0727
      7 H          61.3532   88.2519    8.4243 H       1  UNL1        0.1428
      8 H          60.7736   88.3022   10.0272 H       1  UNL1        0.1428
      9 C          63.0208   83.5321   11.8183 C.ar    1  UNL1        0.0252
     10 C          62.7568   82.0827   11.5364 C.ar    1  UNL1        0.0036
     11 C          63.0100   81.0539   12.5982 C.ar    1  UNL1        0.0207
     12 C          63.5272   81.4745   13.9419 C.ar    1  UNL1        0.0989
     13 N          63.7912   82.9239   14.2238 N.ar    1  UNL1       -0.2423
     14 C          63.5380   83.9527   13.1621 C.ar    1  UNL1        0.0993
@<TRIPOS>BOND
     1     1     2    1
     2     2     3   ar
     3     3     4   ar
     4     4     5   ar
     5     5     9    1
     6     9    10   ar
     7    10    11   ar
     8    11    12   ar
     9    12    13   ar
    10    13    14   ar
    11     5     6   ar
    12     6     2   ar
    13    14     9   ar
    14     1     7    1
    15     1     8    1
@<TRIPOS>MOLECULE
*****
 14 15 0 0 0
SMALL
GASTEIGER

@<TRIPOS>ATOM
      1 N          60.0534   89.4231    8.2321 N.pl3   1  UNL1       -0.3521
      2 C          60.9695   89.0566    9.3619 C.ar    1  UNL1        0.0719
      3 C          61.3571   87.6652    9.7669 C.ar    1  UNL1        0.0213
      4 C          62.2859   87.7657   10.9404 C.ar    1  UNL1        0.0083
      5 C          62.4724   89.2192   11.2607 C.ar    1  UNL1        0.0322
      6 S          61.6588   90.0170   10.2852 S.2     1  UNL1       -0.0727
      7 H          59.6468   88.7173    7.6792 H       1  UNL1        0.1428
      8 H          59.8588   90.3696    8.0434 H       1  UNL1        0.1428
      9 C          63.3231   89.7770   12.3631 C.ar    1  UNL1        0.0252
     10 C          63.7713   88.8900   13.4866 C.ar    1  UNL1        0.0036
     11 C          64.6220   89.4478   14.5889 C.ar    1  UNL1        0.0207
     12 C          65.0245   90.8926   14.5677 C.ar    1  UNL1        0.0989
     13 N          64.5764   91.7796   13.4442 N.ar    1  UNL1       -0.2423
     14 C          63.7257   91.2219   12.3419 C.ar    1  UNL1        0.0993
@<TRIPOS>BOND
     1     1     2    1
     2     2     3   ar
     3     3     4   ar
     4     4     5   ar
     5     5     9    1
     6     9    10   ar
     7    10    11   ar
     8    11    12   ar
     9    12    13   ar
    10    13    14   ar
    11     5     6   ar
    12     6     2   ar
    13    14     9   ar
    14     1     7    1
    15     1     8    1
