@<TRIPOS>MOLECULE
*****
 44 49 0 0 0
SMALL
GASTEIGER

@<TRIPOS>ATOM
      1 C          62.5118   86.2328   10.3615 C.3     1  UNL1        0.1149
      2 C          62.5687   87.1880   11.5166 C.ar    1  UNL1        0.0883
      3 C          63.2376   87.1038   12.8566 C.ar    1  UNL1        0.1643
      4 N          62.9444   88.3722   13.6016 N.ar    1  UNL1       -0.2134
      5 C          62.0943   89.2404   12.7220 C.ar    1  UNL1        0.1833
      6 N          61.8621   88.5085   11.4335 N.ar    1  UNL1       -0.2854
      7 C          61.0985   88.8739   10.1952 C.ar    1  UNL1        0.1163
      8 C          60.3919   90.1944   10.1121 C.ar    1  UNL1        0.1221
      9 N          59.6283   90.5597    8.8738 N.ar    1  UNL1       -0.2104
     10 C          59.5713   89.6046    7.7186 C.ar    1  UNL1        0.2220
     11 N          60.2780   88.2841    7.8017 N.ar    1  UNL1       -0.1971
     12 C          61.0415   87.9187    9.0400 C.ar    1  UNL1        0.1526
     13 N          61.7482   86.5982    9.1232 N.pl3   1  UNL1       -0.2899
     14 C          61.6912   85.6430    7.9680 C.3     1  UNL1        0.0745
     15 C          60.4498   85.1928    7.2565 C.3     1  UNL1        0.0198
     16 C          60.8570   84.2419    6.1703 C.3     1  UNL1        0.0018
     17 C          62.3502   84.1044    6.2104 C.3     1  UNL1        0.0018
     18 C          62.8657   84.9703    7.3214 C.3     1  UNL1        0.0198
     19 C          62.5797   83.7642   11.1684 C.3     1  UNL1        0.0022
     20 C          63.2184   84.9123   10.4446 C.3     1  UNL1        0.0259
     21 C          64.0561   85.9531   13.3627 C.1     1  UNL1        0.1210
     22 N          64.8745   84.8024   13.8688 N.1     1  UNL1       -0.1892
     23 N          58.8077   89.9700    6.4802 N.pl3   1  UNL1       -0.2801
     24 H          57.8785   89.6650    6.3670 H       1  UNL1        0.1552
     25 C          59.4598   90.7999    5.4145 C.ar    1  UNL1        0.0872
     26 C          60.8991   90.5697    5.0603 C.ar    1  UNL1        0.0475
     27 C          61.5512   91.3997    3.9945 C.ar    1  UNL1        0.1459
     28 F          62.9905   91.1695    3.6402 F       1  UNL1       -0.2040
     29 C          60.7641   92.4600    3.2830 C.ar    1  UNL1        0.0838
     30 C          59.3248   92.6902    3.6372 C.ar    1  UNL1        0.0450
     31 C          58.6727   91.8603    4.7030 C.ar    1  UNL1        0.1523
     32 C          61.4162   93.2899    2.2173 C.2     1  UNL1        0.2481
     33 O          60.9615   94.6997    1.9813 O.2     1  UNL1       -0.2701
     34 N          62.5232   92.7101    1.3874 N.am    1  UNL1       -0.3023
     35 H          62.8217   91.7849    1.5423 H       1  UNL1        0.1497
     36 C          63.1754   93.5401    0.3217 C.3     1  UNL1        0.0746
     37 C          62.5779   93.5999   -1.0529 C.3     1  UNL1        0.0369
     38 C          63.2301   94.4299   -2.1186 C.3     1  UNL1        0.0738
     39 N          64.4797   95.2001   -1.8097 N.3     1  UNL1       -0.2714
     40 C          65.1318   96.0301   -2.8755 C.3     1  UNL1        0.0896
     41 C          65.0771   95.1403   -0.4351 C.3     1  UNL1        0.0738
     42 C          64.4249   94.3103    0.6306 C.3     1  UNL1        0.0369
     43 O          57.2334   92.0905    5.0572 O.3     1  UNL1       -0.4702
     44 C          56.2558   90.9544    4.9992 C.3     1  UNL1        0.2525
@<TRIPOS>BOND
     1    19    20    1
     2     1    20    1
     3     1     2    1
     4     2     3   ar
     5     3    21    1
     6    21    22    3
     7     3     4   ar
     8     4     5   ar
     9     5     6   ar
    10     6     7    1
    11     7     8   ar
    12     8     9   ar
    13     9    10   ar
    14    10    23    1
    15    23    25    1
    16    25    26   ar
    17    26    27   ar
    18    27    28    1
    19    27    29   ar
    20    29    32    1
    21    32    33    2
    22    32    34   am
    23    34    36    1
    24    36    37    1
    25    37    38    1
    26    38    39    1
    27    39    40    1
    28    39    41    1
    29    41    42    1
    30    29    30   ar
    31    30    31   ar
    32    31    43    1
    33    43    44    1
    34    10    11   ar
    35    11    12   ar
    36    12    13    1
    37    13    14    1
    38    14    15    1
    39    15    16    1
    40    16    17    1
    41    17    18    1
    42    13     1    1
    43    18    14    1
    44     6     2   ar
    45    12     7   ar
    46    31    25   ar
    47    42    36    1
    48    23    24    1
    49    34    35    1
@<TRIPOS>MOLECULE
*****
 44 49 0 0 0
SMALL
GASTEIGER

@<TRIPOS>ATOM
      1 C          62.8061   83.5163   11.9058 C.3     1  UNL1        0.1149
      2 C          63.1214   82.4368   12.8984 C.ar    1  UNL1        0.0883
      3 C          63.2147   80.9457   12.7639 C.ar    1  UNL1        0.1643
      4 N          63.5671   80.3803   14.1078 N.ar    1  UNL1       -0.2134
      5 C          63.6917   81.5219   15.0728 C.ar    1  UNL1        0.1833
      6 N          63.4162   82.7928   14.3253 N.ar    1  UNL1       -0.2854
      7 C          63.3958   84.2284   14.7598 C.ar    1  UNL1        0.1163
      8 C          63.6906   84.5845   16.1867 C.ar    1  UNL1        0.1221
      9 N          63.6701   86.0200   16.6211 N.ar    1  UNL1       -0.2104
     10 C          63.3548   87.0996   15.6285 C.ar    1  UNL1        0.2220
     11 N          63.0600   86.7435   14.2015 N.ar    1  UNL1       -0.1971
     12 C          63.0805   85.3079   13.7671 C.ar    1  UNL1        0.1526
     13 N          62.7857   84.9518   12.3401 N.pl3   1  UNL1       -0.2899
     14 C          62.4704   86.0313   11.3475 C.3     1  UNL1        0.0745
     15 C          61.5267   85.9142   10.1875 C.3     1  UNL1        0.0198
     16 C          61.5165   87.2280    9.4637 C.3     1  UNL1        0.0018
     17 C          62.4539   88.1571   10.1764 C.3     1  UNL1        0.0018
     18 C          63.0434   87.4175   11.3407 C.3     1  UNL1        0.0198
     19 C          63.6328   83.0300    9.4912 C.3     1  UNL1        0.0022
     20 C          62.5113   83.1601   10.4787 C.3     1  UNL1        0.0259
     21 C          62.9941   80.1583   11.5063 C.1     1  UNL1        0.1210
     22 N          62.7737   79.3710   10.2487 N.1     1  UNL1       -0.1892
     23 N          63.3344   88.5352   16.0629 N.pl3   1  UNL1       -0.2801
     24 H          62.9390   88.7814   16.9302 H       1  UNL1        0.1552
     25 C          63.9163   89.5956   15.1758 C.ar    1  UNL1        0.0872
     26 C          65.3212   90.0717   15.3983 C.ar    1  UNL1        0.0475
     27 C          65.9031   91.1321   14.5112 C.ar    1  UNL1        0.1459
     28 F          67.3080   91.6083   14.7337 F       1  UNL1       -0.2040
     29 C          65.0800   91.7164   13.4016 C.ar    1  UNL1        0.0838
     30 C          63.6751   91.2402   13.1790 C.ar    1  UNL1        0.0450
     31 C          63.0932   90.1798   14.0661 C.ar    1  UNL1        0.1523
     32 C          65.6619   92.7767   12.5145 C.2     1  UNL1        0.2481
     33 O          66.2857   94.0002   13.1179 O.2     1  UNL1       -0.2701
     34 N          65.6201   92.6137   11.0239 N.am    1  UNL1       -0.3023
     35 H          65.2107   91.8107   10.6278 H       1  UNL1        0.1497
     36 C          66.2020   93.6741   10.1368 C.3     1  UNL1        0.0746
     37 C          67.3849   93.3603    9.2695 C.3     1  UNL1        0.0369
     38 C          67.9668   94.4207    8.3825 C.3     1  UNL1        0.0738
     39 N          67.3657   95.7949    8.3626 N.3     1  UNL1       -0.2714
     40 C          67.9476   96.8553    7.4755 C.3     1  UNL1        0.0896
     41 C          66.1828   96.1087    9.2299 C.3     1  UNL1        0.0738
     42 C          65.6009   95.0482   10.1170 C.3     1  UNL1        0.0369
     43 O          61.6883   89.7037   13.8436 O.3     1  UNL1       -0.4702
     44 C          60.9786   90.0332   12.5639 C.3     1  UNL1        0.2525
@<TRIPOS>BOND
     1    19    20    1
     2     1    20    1
     3     1     2    1
     4     2     3   ar
     5     3    21    1
     6    21    22    3
     7     3     4   ar
     8     4     5   ar
     9     5     6   ar
    10     6     7    1
    11     7     8   ar
    12     8     9   ar
    13     9    10   ar
    14    10    23    1
    15    23    25    1
    16    25    26   ar
    17    26    27   ar
    18    27    28    1
    19    27    29   ar
    20    29    32    1
    21    32    33    2
    22    32    34   am
    23    34    36    1
    24    36    37    1
    25    37    38    1
    26    38    39    1
    27    39    40    1
    28    39    41    1
    29    41    42    1
    30    29    30   ar
    31    30    31   ar
    32    31    43    1
    33    43    44    1
    34    10    11   ar
    35    11    12   ar
    36    12    13    1
    37    13    14    1
    38    14    15    1
    39    15    16    1
    40    16    17    1
    41    17    18    1
    42    13     1    1
    43    18    14    1
    44     6     2   ar
    45    12     7   ar
    46    31    25   ar
    47    42    36    1
    48    23    24    1
    49    34    35    1
@<TRIPOS>MOLECULE
*****
 44 49 0 0 0
SMALL
GASTEIGER

@<TRIPOS>ATOM
      1 C          62.7513   82.8776   11.9302 C.3     1  UNL1        0.1149
      2 C          63.0231   81.8890   13.0251 C.ar    1  UNL1        0.0883
      3 C          63.0902   80.3905   13.0304 C.ar    1  UNL1        0.1643
      4 N          63.4013   79.9454   14.4286 N.ar    1  UNL1       -0.2134
      5 C          63.5265   81.1688   15.2875 C.ar    1  UNL1        0.1833
      6 N          63.2927   82.3699   14.4200 N.ar    1  UNL1       -0.2854
      7 C          63.2906   83.8396   14.7202 C.ar    1  UNL1        0.1163
      8 C          63.5602   84.3206   16.1151 C.ar    1  UNL1        0.1221
      9 N          63.5581   85.7903   16.4152 N.ar    1  UNL1       -0.2104
     10 C          63.2863   86.7789   15.3204 C.ar    1  UNL1        0.2220
     11 N          63.0167   86.2980   13.9254 N.ar    1  UNL1       -0.1971
     12 C          63.0188   84.8283   13.6253 C.ar    1  UNL1        0.1526
     13 N          62.7492   84.3473   12.2303 N.pl3   1  UNL1       -0.2899
     14 C          62.4774   85.3359   11.1355 C.3     1  UNL1        0.0745
     15 C          63.2242   85.4433    9.8391 C.3     1  UNL1        0.0198
     16 C          62.6194   86.5645    9.0472 C.3     1  UNL1        0.0018
     17 C          61.4988   87.1502    9.8542 C.3     1  UNL1        0.0018
     18 C          61.4111   86.3909   11.1448 C.3     1  UNL1        0.0198
     19 C          63.6237   82.0315    9.6339 C.3     1  UNL1        0.0022
     20 C          62.4816   82.3966   10.5352 C.3     1  UNL1        0.0259
     21 C          62.8826   79.4944   11.8454 C.1     1  UNL1        0.1210
     22 N          62.6750   78.5983   10.6606 N.1     1  UNL1       -0.1892
     23 N          63.2842   88.2486   15.6205 N.pl3   1  UNL1       -0.2801
     24 H          63.0467   88.5667   16.5215 H       1  UNL1        0.1552
     25 C          63.6439   89.2337   14.5480 C.ar    1  UNL1        0.0872
     26 C          63.4706   88.8668   13.1040 C.ar    1  UNL1        0.0475
     27 C          63.8303   89.8519   12.0314 C.ar    1  UNL1        0.1459
     28 F          63.6570   89.4850   10.5874 F       1  UNL1       -0.2040
     29 C          64.3633   91.2038   12.4030 C.ar    1  UNL1        0.0838
     30 C          64.5366   91.5708   13.8471 C.ar    1  UNL1        0.0450
     31 C          64.1769   90.5857   14.9196 C.ar    1  UNL1        0.1523
     32 C          64.7229   92.1889   11.3305 C.2     1  UNL1        0.2481
     33 O          63.7663   92.4566   10.2066 O.2     1  UNL1       -0.2701
     34 N          66.0393   92.9063   11.3819 N.am    1  UNL1       -0.3023
     35 H          66.6672   92.7306   12.1195 H       1  UNL1        0.1497
     36 C          66.3990   93.8913   10.3094 C.3     1  UNL1        0.0746
     37 C          65.7143   95.2248   10.2556 C.3     1  UNL1        0.0369
     38 C          66.0739   96.2098    9.1831 C.3     1  UNL1        0.0738
     39 N          67.1184   95.8614    8.1643 N.3     1  UNL1       -0.2714
     40 C          67.4781   96.8464    7.0918 C.3     1  UNL1        0.0896
     41 C          67.8032   94.5279    8.2182 C.3     1  UNL1        0.0738
     42 C          67.4434   93.5428    9.2908 C.3     1  UNL1        0.0369
     43 O          64.3502   90.9526   16.3637 O.3     1  UNL1       -0.4702
     44 C          65.1215   92.1836   16.7374 C.3     1  UNL1        0.2525
@<TRIPOS>BOND
     1    19    20    1
     2     1    20    1
     3     1     2    1
     4     2     3   ar
     5     3    21    1
     6    21    22    3
     7     3     4   ar
     8     4     5   ar
     9     5     6   ar
    10     6     7    1
    11     7     8   ar
    12     8     9   ar
    13     9    10   ar
    14    10    23    1
    15    23    25    1
    16    25    26   ar
    17    26    27   ar
    18    27    28    1
    19    27    29   ar
    20    29    32    1
    21    32    33    2
    22    32    34   am
    23    34    36    1
    24    36    37    1
    25    37    38    1
    26    38    39    1
    27    39    40    1
    28    39    41    1
    29    41    42    1
    30    29    30   ar
    31    30    31   ar
    32    31    43    1
    33    43    44    1
    34    10    11   ar
    35    11    12   ar
    36    12    13    1
    37    13    14    1
    38    14    15    1
    39    15    16    1
    40    16    17    1
    41    17    18    1
    42    13     1    1
    43    18    14    1
    44     6     2   ar
    45    12     7   ar
    46    31    25   ar
    47    42    36    1
    48    23    24    1
    49    34    35    1
