@<TRIPOS>MOLECULE
*****
 39 42 0 0 0
SMALL
GASTEIGER

@<TRIPOS>ATOM
      1 C          63.3655   88.9281   14.2722 C.3     1  UNL1        0.1678
      2 C          63.2355   88.8495   12.7799 C.2     1  UNL1        0.2492
      3 O          63.2975   90.1591   12.0512 O.2     1  UNL1       -0.2727
      4 N          63.0516   87.6343   11.9199 N.am    1  UNL1       -0.2518
      5 C          62.9524   86.1977   12.3398 C.ar    1  UNL1        0.0679
      6 C          62.7709   85.2925   11.1576 C.ar    1  UNL1        0.0169
      7 C          62.6495   83.8111   11.3589 C.ar    1  UNL1        0.0116
      8 C          62.7096   83.2348   12.7425 C.ar    1  UNL1        0.0698
      9 C          62.8911   84.1400   13.9247 C.ar    1  UNL1        0.0264
     10 C          63.0125   85.6214   13.7234 C.ar    1  UNL1        0.0682
     11 N          63.1867   86.3395   15.0288 N.am    1  UNL1       -0.2570
     12 C          63.2064   85.4710   16.2516 C.2     1  UNL1        0.2299
     13 C          63.0570   83.9844   16.1184 C.3     1  UNL1        0.0952
     14 O          63.3755   86.0892   17.6079 O.2     1  UNL1       -0.2745
     15 C          63.3438   87.8111   15.2731 C.3     1  UNL1        0.1066
     16 C          63.4998   88.2197   16.7078 C.3     1  UNL1        0.0242
     17 C          64.9138   90.8951   14.9677 C.2     1  UNL1        0.2371
     18 O          66.1124   90.1062   14.5306 O.2     1  UNL1       -0.2737
     19 N          63.5404   90.3061   14.8385 N.am    1  UNL1       -0.2959
     20 H          62.7537   90.8239   15.1254 H       1  UNL1        0.1499
     21 C          65.0886   92.2731   15.5340 C.3     1  UNL1        0.1316
     22 C          64.6077   92.5804   16.9212 C.3     1  UNL1        0.0270
     23 C          67.2278   93.5503   14.7973 C.3     1  UNL1        0.0862
     24 N          65.7445   93.3436   14.7132 N.3     1  UNL1       -0.2902
     25 H          65.5306   93.1388   13.7371 H       1  UNL1        0.1237
     26 C          62.5882   81.7533   12.9438 C.1     1  UNL1        0.1005
     27 N          62.4669   80.2719   13.1452 N.1     1  UNL1       -0.1908
     28 C          62.9541   87.8895   10.4450 C.3     1  UNL1        0.1245
     29 C          61.6809   87.5833    9.7134 C.ar    1  UNL1       -0.0059
     30 C          60.4197   88.3158   10.0641 C.ar    1  UNL1       -0.0242
     31 C          60.2377   88.8829   10.5939 C.3     1  UNL1        0.0308
     32 C          59.1465   88.0097    9.3326 C.ar    1  UNL1       -0.0045
     33 C          59.1344   86.9711    8.2503 C.ar    1  UNL1       -0.0003
     34 C          60.3956   86.2387    7.8996 C.ar    1  UNL1       -0.0003
     35 C          60.3836   85.2002    6.8173 C.ar    1  UNL1       -0.0000
     36 C          61.6448   84.4678    6.4666 C.ar    1  UNL1       -0.0000
     37 C          62.9180   84.7739    7.1982 C.ar    1  UNL1       -0.0000
     38 C          62.9300   85.8124    8.2804 C.ar    1  UNL1       -0.0003
     39 C          61.6689   86.5448    8.6311 C.ar    1  UNL1       -0.0027
@<TRIPOS>BOND
     1    23    24    1
     2    24    21    1
     3    21    22    1
     4    21    17    1
     5    17    18    2
     6    17    19   am
     7     1    19    1
     8     1     2    1
     9     2     3    2
    10     2     4   am
    11     4    28    1
    12    28    29    1
    13    29    30   ar
    14    30    31    1
    15    30    32   ar
    16    32    33   ar
    17    33    34   ar
    18    34    35   ar
    19    35    36   ar
    20    36    37   ar
    21    37    38   ar
    22    38    39   ar
    23     4     5    1
    24     5     6   ar
    25     6     7   ar
    26     7     8   ar
    27     8    26    1
    28    26    27    3
    29     8     9   ar
    30     9    10   ar
    31    10    11    1
    32    11    12   am
    33    12    13    1
    34    12    14    2
    35    11    15    1
    36    15    16    1
    37    15     1    1
    38    39    29   ar
    39    10     5   ar
    40    39    34   ar
    41    24    25    1
    42    19    20    1
@<TRIPOS>MOLECULE
*****
 39 42 0 0 0
SMALL
GASTEIGER

@<TRIPOS>ATOM
      1 C          62.4762   84.4865   13.5694 C.3     1  UNL1        0.1678
      2 C          62.5993   85.2642   12.2926 C.2     1  UNL1        0.2492
      3 O          62.3782   84.4834   11.0311 O.2     1  UNL1       -0.2727
      4 N          62.9142   86.7194   12.1106 N.am    1  UNL1       -0.2518
      5 C          63.1839   87.7564   13.1604 C.ar    1  UNL1        0.0679
      6 C          63.4572   89.0981   12.5479 C.ar    1  UNL1        0.0169
      7 C          63.7518   90.2776   13.4265 C.ar    1  UNL1        0.0116
      8 C          63.7731   90.1154   14.9175 C.ar    1  UNL1        0.0698
      9 C          63.4998   88.7737   15.5300 C.ar    1  UNL1        0.0264
     10 C          63.2052   87.5942   14.6514 C.ar    1  UNL1        0.0682
     11 N          62.9621   86.3550   15.4609 N.am    1  UNL1       -0.2570
     12 C          63.0558   86.5208   16.9488 C.2     1  UNL1        0.2299
     13 C          63.3754   87.8640   17.5352 C.3     1  UNL1        0.0952
     14 O          62.8300   85.3434   17.8504 O.2     1  UNL1       -0.2745
     15 C          62.6377   84.9719   14.9795 C.3     1  UNL1        0.1066
     16 C          62.4499   83.9376   16.0494 C.3     1  UNL1        0.0242
     17 C          63.2106   82.0645   12.9826 C.2     1  UNL1        0.2371
     18 O          64.6008   82.5537   12.7031 O.2     1  UNL1       -0.2737
     19 N          62.1484   83.0309   13.4157 N.am    1  UNL1       -0.2959
     20 H          61.2360   82.7098   13.5992 H       1  UNL1        0.1499
     21 C          62.8827   80.6088   12.8289 C.3     1  UNL1        0.1316
     22 C          62.4999   79.7954   14.0298 C.3     1  UNL1        0.0270
     23 C          63.1350   80.8117   10.2511 C.3     1  UNL1        0.0862
     24 N          62.9376   79.9665   11.4746 N.3     1  UNL1       -0.2902
     25 H          63.7068   79.2970   11.4971 H       1  UNL1        0.1237
     26 C          64.0677   91.2950   15.7961 C.1     1  UNL1        0.1005
     27 N          64.3623   92.4745   16.6746 N.1     1  UNL1       -0.1908
     28 C          62.9664   87.2014   10.6912 C.3     1  UNL1        0.1245
     29 C          61.7476   87.1076    9.8218 C.ar    1  UNL1       -0.0059
     30 C          60.5206   87.9003   10.1626 C.ar    1  UNL1       -0.0242
     31 C          60.3347   88.4093   10.7473 C.3     1  UNL1        0.0308
     32 C          59.3017   87.8065    9.2934 C.ar    1  UNL1       -0.0045
     33 C          59.3099   86.9200    8.0834 C.ar    1  UNL1       -0.0003
     34 C          60.5369   86.1274    7.7426 C.ar    1  UNL1       -0.0003
     35 C          60.5451   85.2409    6.5326 C.ar    1  UNL1       -0.0000
     36 C          61.7721   84.4483    6.1919 C.ar    1  UNL1       -0.0000
     37 C          62.9910   84.5421    7.0611 C.ar    1  UNL1       -0.0000
     38 C          62.9828   85.4285    8.2711 C.ar    1  UNL1       -0.0003
     39 C          61.7558   86.2211    8.6118 C.ar    1  UNL1       -0.0027
@<TRIPOS>BOND
     1    23    24    1
     2    24    21    1
     3    21    22    1
     4    21    17    1
     5    17    18    2
     6    17    19   am
     7     1    19    1
     8     1     2    1
     9     2     3    2
    10     2     4   am
    11     4    28    1
    12    28    29    1
    13    29    30   ar
    14    30    31    1
    15    30    32   ar
    16    32    33   ar
    17    33    34   ar
    18    34    35   ar
    19    35    36   ar
    20    36    37   ar
    21    37    38   ar
    22    38    39   ar
    23     4     5    1
    24     5     6   ar
    25     6     7   ar
    26     7     8   ar
    27     8    26    1
    28    26    27    3
    29     8     9   ar
    30     9    10   ar
    31    10    11    1
    32    11    12   am
    33    12    13    1
    34    12    14    2
    35    11    15    1
    36    15    16    1
    37    15     1    1
    38    39    29   ar
    39    10     5   ar
    40    39    34   ar
    41    24    25    1
    42    19    20    1
@<TRIPOS>MOLECULE
*****
 39 42 0 0 0
SMALL
GASTEIGER

@<TRIPOS>ATOM
      1 C          63.1199   90.1107   14.8463 C.3     1  UNL1        0.1678
      2 C          62.4957   89.8877   13.5007 C.2     1  UNL1        0.2492
      3 O          61.3716   88.8953   13.4610 O.2     1  UNL1       -0.2727
      4 N          62.8471   90.5259   12.1895 N.am    1  UNL1       -0.2518
      5 C          63.9094   91.5446   11.9000 C.ar    1  UNL1        0.0679
      6 C          63.9272   91.9203   10.4479 C.ar    1  UNL1        0.0169
      7 C          64.9183   92.9282    9.9462 C.ar    1  UNL1        0.0116
      8 C          65.8916   93.5604   10.8965 C.ar    1  UNL1        0.0698
      9 C          65.8737   93.1847   12.3486 C.ar    1  UNL1        0.0264
     10 C          64.8826   92.1768   12.8503 C.ar    1  UNL1        0.0682
     11 N          65.0340   91.9464   14.3248 N.am    1  UNL1       -0.2570
     12 C          66.1125   92.7405   15.0002 C.2     1  UNL1        0.2299
     13 C          66.9560   93.6902   14.2024 C.3     1  UNL1        0.0952
     14 O          66.3474   92.5849   16.4735 O.2     1  UNL1       -0.2745
     15 C          64.2495   91.0269   15.2131 C.3     1  UNL1        0.1066
     16 C          64.6472   91.0231   16.6594 C.3     1  UNL1        0.0242
     17 C          63.0378   87.9244   16.2475 C.2     1  UNL1        0.2371
     18 O          64.1207   87.3358   15.3927 O.2     1  UNL1       -0.2737
     19 N          62.5373   89.3118   15.9743 N.am    1  UNL1       -0.2959
     20 H          61.8266   89.6981   16.5354 H       1  UNL1        0.1499
     21 C          62.4552   87.1256   17.3756 C.3     1  UNL1        0.1316
     22 C          62.7397   87.5154   18.7959 C.3     1  UNL1        0.0270
     23 C          62.0898   84.8456   16.1846 C.3     1  UNL1        0.0862
     24 N          61.5883   85.9369   17.0834 N.3     1  UNL1       -0.2902
     25 H          61.3714   85.5029   17.9806 H       1  UNL1        0.1237
     26 C          66.8827   94.5684   10.3947 C.1     1  UNL1        0.1005
     27 N          67.8738   95.5763    9.8930 N.1     1  UNL1       -0.1908
     28 C          62.0279   90.0873   11.0120 C.3     1  UNL1        0.1245
     29 C          61.9306   88.6308   10.6666 C.ar    1  UNL1       -0.0059
     30 C          62.7288   87.6222   11.4383 C.ar    1  UNL1       -0.0242
     31 C          63.2426   87.6700   12.0459 C.3     1  UNL1        0.0308
     32 C          62.6316   86.1657   11.0930 C.ar    1  UNL1       -0.0045
     33 C          61.7362   85.7178    9.9761 C.ar    1  UNL1       -0.0003
     34 C          60.9379   86.7265    9.2044 C.ar    1  UNL1       -0.0003
     35 C          60.0424   86.2787    8.0874 C.ar    1  UNL1       -0.0000
     36 C          59.2442   87.2873    7.3158 C.ar    1  UNL1       -0.0000
     37 C          59.3414   88.7438    7.6611 C.ar    1  UNL1       -0.0000
     38 C          60.2369   89.1916    8.7780 C.ar    1  UNL1       -0.0003
     39 C          61.0351   88.1830    9.5496 C.ar    1  UNL1       -0.0027
@<TRIPOS>BOND
     1    23    24    1
     2    24    21    1
     3    21    22    1
     4    21    17    1
     5    17    18    2
     6    17    19   am
     7     1    19    1
     8     1     2    1
     9     2     3    2
    10     2     4   am
    11     4    28    1
    12    28    29    1
    13    29    30   ar
    14    30    31    1
    15    30    32   ar
    16    32    33   ar
    17    33    34   ar
    18    34    35   ar
    19    35    36   ar
    20    36    37   ar
    21    37    38   ar
    22    38    39   ar
    23     4     5    1
    24     5     6   ar
    25     6     7   ar
    26     7     8   ar
    27     8    26    1
    28    26    27    3
    29     8     9   ar
    30     9    10   ar
    31    10    11    1
    32    11    12   am
    33    12    13    1
    34    12    14    2
    35    11    15    1
    36    15    16    1
    37    15     1    1
    38    39    29   ar
    39    10     5   ar
    40    39    34   ar
    41    24    25    1
    42    19    20    1
@<TRIPOS>MOLECULE
*****
 39 42 0 0 0
SMALL
GASTEIGER

@<TRIPOS>ATOM
      1 C          63.8733   89.1054   13.8858 C.3     1  UNL1        0.1678
      2 C          64.2580   87.6570   13.9527 C.2     1  UNL1        0.2492
      3 O          65.1946   87.2830   15.0630 O.2     1  UNL1       -0.2727
      4 N          63.8298   86.5334   13.0561 N.am    1  UNL1       -0.2518
      5 C          62.9113   86.5804   11.8711 C.ar    1  UNL1        0.0679
      6 C          62.7478   85.2247   11.2503 C.ar    1  UNL1        0.0169
      7 C          61.8671   85.0514   10.0486 C.ar    1  UNL1        0.0116
      8 C          61.1499   86.2338    9.4676 C.ar    1  UNL1        0.0698
      9 C          61.3133   87.5895   10.0884 C.ar    1  UNL1        0.0264
     10 C          62.1940   87.7627   11.2901 C.ar    1  UNL1        0.0682
     11 N          62.2182   89.1901   11.7507 N.am    1  UNL1       -0.2570
     12 C          61.3848   90.1464   10.9501 C.2     1  UNL1        0.2299
     13 C          60.5972   89.6514    9.7732 C.3     1  UNL1        0.0952
     14 O          61.3388   91.5978   11.3263 O.2     1  UNL1       -0.2745
     15 C          62.9655   89.7877   12.9058 C.3     1  UNL1        0.1066
     16 C          62.7806   91.2624   13.1077 C.3     1  UNL1        0.0242
     17 C          65.4989   91.0174   14.5578 C.2     1  UNL1        0.2371
     18 O          65.9187   91.1640   13.1252 O.2     1  UNL1       -0.2737
     19 N          64.4762   89.9881   14.9381 N.am    1  UNL1       -0.2959
     20 H          64.2006   89.8919   15.8783 H       1  UNL1        0.1499
     21 C          66.1017   91.9002   15.6101 C.3     1  UNL1        0.1316
     22 C          65.2182   92.5878   16.6085 C.3     1  UNL1        0.0270
     23 C          68.1621   93.4808   15.6889 C.3     1  UNL1        0.0862
     24 N          67.5880   92.0953   15.6641 N.3     1  UNL1       -0.2902
     25 H          67.9162   91.6254   16.5078 H       1  UNL1        0.1237
     26 C          60.2691   86.0605    8.2657 C.1     1  UNL1        0.1005
     27 N          59.3885   85.8871    7.0640 N.1     1  UNL1       -0.1908
     28 C          64.3949   85.1842   13.3883 C.3     1  UNL1        0.1245
     29 C          63.4743   84.0293   13.6510 C.ar    1  UNL1       -0.0059
     30 C          62.6392   84.0044   14.8968 C.ar    1  UNL1       -0.0242
     31 C          62.5529   84.4993   15.5157 C.3     1  UNL1        0.0308
     32 C          61.7186   82.8496   15.1596 C.ar    1  UNL1       -0.0045
     33 C          61.6332   81.7198   14.1765 C.ar    1  UNL1       -0.0003
     34 C          62.4683   81.7448   12.9307 C.ar    1  UNL1       -0.0003
     35 C          62.3829   80.6151   11.9477 C.ar    1  UNL1       -0.0000
     36 C          63.2180   80.6401   10.7020 C.ar    1  UNL1       -0.0000
     37 C          64.1386   81.7949   10.4392 C.ar    1  UNL1       -0.0000
     38 C          64.2240   82.9246   11.4223 C.ar    1  UNL1       -0.0003
     39 C          63.3890   82.8996   12.6680 C.ar    1  UNL1       -0.0027
@<TRIPOS>BOND
     1    23    24    1
     2    24    21    1
     3    21    22    1
     4    21    17    1
     5    17    18    2
     6    17    19   am
     7     1    19    1
     8     1     2    1
     9     2     3    2
    10     2     4   am
    11     4    28    1
    12    28    29    1
    13    29    30   ar
    14    30    31    1
    15    30    32   ar
    16    32    33   ar
    17    33    34   ar
    18    34    35   ar
    19    35    36   ar
    20    36    37   ar
    21    37    38   ar
    22    38    39   ar
    23     4     5    1
    24     5     6   ar
    25     6     7   ar
    26     7     8   ar
    27     8    26    1
    28    26    27    3
    29     8     9   ar
    30     9    10   ar
    31    10    11    1
    32    11    12   am
    33    12    13    1
    34    12    14    2
    35    11    15    1
    36    15    16    1
    37    15     1    1
    38    39    29   ar
    39    10     5   ar
    40    39    34   ar
    41    24    25    1
    42    19    20    1
@<TRIPOS>MOLECULE
*****
 39 42 0 0 0
SMALL
GASTEIGER

@<TRIPOS>ATOM
      1 C          59.8272   88.8872    8.4007 C.3     1  UNL1        0.1678
      2 C          60.3138   89.5139    9.6737 C.2     1  UNL1        0.2492
      3 O          59.8298   90.9086    9.9390 O.2     1  UNL1       -0.2727
      4 N          61.2205   88.9302   10.7164 N.am    1  UNL1       -0.2518
      5 C          61.8645   87.5758   10.7438 C.ar    1  UNL1        0.0679
      6 C          62.7012   87.3915   11.9750 C.ar    1  UNL1        0.0169
      7 C          63.4342   86.1020   12.1976 C.ar    1  UNL1        0.0116
      8 C          63.3306   84.9966   11.1889 C.ar    1  UNL1        0.0698
      9 C          62.4938   85.1808    9.9577 C.ar    1  UNL1        0.0264
     10 C          61.7608   86.4704    9.7351 C.ar    1  UNL1        0.0682
     11 N          60.9876   86.4465    8.4500 N.am    1  UNL1       -0.2570
     12 C          61.0882   85.1795    7.6534 C.2     1  UNL1        0.2299
     13 C          61.9237   84.0405    8.1581 C.3     1  UNL1        0.0952
     14 O          60.3532   85.0514    6.3520 O.2     1  UNL1       -0.2745
     15 C          60.1270   87.5220    7.8561 C.3     1  UNL1        0.1066
     16 C          59.4809   87.1884    6.5442 C.3     1  UNL1        0.0242
     17 C          59.4462   90.3942    6.3190 C.2     1  UNL1        0.2371
     18 O          60.8779   90.1994    5.9159 O.2     1  UNL1       -0.2737
     19 N          58.9209   89.7381    7.5614 N.am    1  UNL1       -0.2959
     20 H          57.9813   89.8660    7.8259 H       1  UNL1        0.1499
     21 C          58.5399   91.2451    5.4796 C.3     1  UNL1        0.1316
     22 C          57.1408   90.7894    5.1880 C.3     1  UNL1        0.0270
     23 C          59.7698   92.5874    3.6262 C.3     1  UNL1        0.0862
     24 N          59.0325   92.5517    4.9320 N.3     1  UNL1       -0.2902
     25 H          58.2156   93.1531    4.8253 H       1  UNL1        0.1237
     26 C          64.0637   83.7069   11.4115 C.1     1  UNL1        0.1005
     27 N          64.7967   82.4174   11.6341 N.1     1  UNL1       -0.1908
     28 C          61.5233   89.8185   11.8866 C.3     1  UNL1        0.1245
     29 C          62.7873   90.6260   11.9081 C.ar    1  UNL1       -0.0059
     30 C          63.3013   91.2481   10.6437 C.ar    1  UNL1       -0.0242
     31 C          63.0467   91.2586    9.8883 C.3     1  UNL1        0.0308
     32 C          64.5653   92.0555   10.6651 C.ar    1  UNL1       -0.0045
     33 C          65.3151   92.2409   11.9509 C.ar    1  UNL1       -0.0003
     34 C          64.8010   91.6188   13.2154 C.ar    1  UNL1       -0.0003
     35 C          65.5508   91.8042   14.5012 C.ar    1  UNL1       -0.0000
     36 C          65.0367   91.1821   15.7655 C.ar    1  UNL1       -0.0000
     37 C          63.7727   90.3746   15.7441 C.ar    1  UNL1       -0.0000
     38 C          63.0230   90.1893   14.4583 C.ar    1  UNL1       -0.0003
     39 C          63.5370   90.8113   13.1940 C.ar    1  UNL1       -0.0027
@<TRIPOS>BOND
     1    23    24    1
     2    24    21    1
     3    21    22    1
     4    21    17    1
     5    17    18    2
     6    17    19   am
     7     1    19    1
     8     1     2    1
     9     2     3    2
    10     2     4   am
    11     4    28    1
    12    28    29    1
    13    29    30   ar
    14    30    31    1
    15    30    32   ar
    16    32    33   ar
    17    33    34   ar
    18    34    35   ar
    19    35    36   ar
    20    36    37   ar
    21    37    38   ar
    22    38    39   ar
    23     4     5    1
    24     5     6   ar
    25     6     7   ar
    26     7     8   ar
    27     8    26    1
    28    26    27    3
    29     8     9   ar
    30     9    10   ar
    31    10    11    1
    32    11    12   am
    33    12    13    1
    34    12    14    2
    35    11    15    1
    36    15    16    1
    37    15     1    1
    38    39    29   ar
    39    10     5   ar
    40    39    34   ar
    41    24    25    1
    42    19    20    1
@<TRIPOS>MOLECULE
*****
 39 42 0 0 0
SMALL
GASTEIGER

@<TRIPOS>ATOM
      1 C          63.0927   86.1114   11.7533 C.3     1  UNL1        0.1678
      2 C          62.9514   87.4946   12.3162 C.2     1  UNL1        0.2492
      3 O          63.6202   87.7310   13.6378 O.2     1  UNL1       -0.2727
      4 N          62.2296   88.6726   11.7320 N.am    1  UNL1       -0.2518
      5 C          61.4709   88.7585   10.4408 C.ar    1  UNL1        0.0679
      6 C          60.8976   90.1288   10.2322 C.ar    1  UNL1        0.0169
      7 C          60.1000   90.4280    8.9976 C.ar    1  UNL1        0.0116
      8 C          59.8757   89.3569    7.9717 C.ar    1  UNL1        0.0698
      9 C          60.4490   87.9867    8.1803 C.ar    1  UNL1        0.0264
     10 C          61.2466   87.6874    9.4149 C.ar    1  UNL1        0.0682
     11 N          61.7257   86.2660    9.4268 N.am    1  UNL1       -0.2570
     12 C          61.3309   85.4363    8.2412 C.2     1  UNL1        0.2299
     13 C          60.5084   86.0417    7.1424 C.3     1  UNL1        0.0952
     14 O          61.7586   84.0012    8.1542 O.2     1  UNL1       -0.2745
     15 C          62.5472   85.5646   10.4675 C.3     1  UNL1        0.1066
     16 C          62.8654   84.1262   10.1849 C.3     1  UNL1        0.0242
     17 C          63.2337   84.4434   13.7403 C.2     1  UNL1        0.2371
     18 O          61.7914   84.7033   14.0608 O.2     1  UNL1       -0.2737
     19 N          63.8843   85.1475   12.5866 N.am    1  UNL1       -0.2959
     20 H          64.8308   84.9769   12.3763 H       1  UNL1        0.1499
     21 C          64.0252   83.4795   14.5736 C.3     1  UNL1        0.1316
     22 C          65.2035   83.9643   15.3652 C.3     1  UNL1        0.0270
     23 C          63.5399   81.2439   13.3422 C.3     1  UNL1        0.0862
     24 N          63.6384   82.0309   14.6154 N.3     1  UNL1       -0.2902
     25 H          64.3276   81.5589   15.2007 H       1  UNL1        0.1237
     26 C          59.0781   89.6562    6.7370 C.1     1  UNL1        0.1005
     27 N          58.2805   89.9555    5.5024 N.1     1  UNL1       -0.1908
     28 C          62.2721   89.9314   12.5468 C.3     1  UNL1        0.1245
     29 C          63.4486   90.8556   12.4384 C.ar    1  UNL1       -0.0059
     30 C          63.9120   91.3248   11.0912 C.ar    1  UNL1       -0.0242
     31 C          63.6661   91.1937   10.3443 C.3     1  UNL1        0.0308
     32 C          65.0884   92.2491   10.9827 C.ar    1  UNL1       -0.0045
     33 C          65.8014   92.7041   12.2215 C.ar    1  UNL1       -0.0003
     34 C          65.3379   92.2349   13.5688 C.ar    1  UNL1       -0.0003
     35 C          66.0509   92.6899   14.8076 C.ar    1  UNL1       -0.0000
     36 C          65.5874   92.2207   16.1548 C.ar    1  UNL1       -0.0000
     37 C          64.4110   91.2964   16.2632 C.ar    1  UNL1       -0.0000
     38 C          63.6980   90.8414   15.0244 C.ar    1  UNL1       -0.0003
     39 C          64.1615   91.3106   13.6773 C.ar    1  UNL1       -0.0027
@<TRIPOS>BOND
     1    23    24    1
     2    24    21    1
     3    21    22    1
     4    21    17    1
     5    17    18    2
     6    17    19   am
     7     1    19    1
     8     1     2    1
     9     2     3    2
    10     2     4   am
    11     4    28    1
    12    28    29    1
    13    29    30   ar
    14    30    31    1
    15    30    32   ar
    16    32    33   ar
    17    33    34   ar
    18    34    35   ar
    19    35    36   ar
    20    36    37   ar
    21    37    38   ar
    22    38    39   ar
    23     4     5    1
    24     5     6   ar
    25     6     7   ar
    26     7     8   ar
    27     8    26    1
    28    26    27    3
    29     8     9   ar
    30     9    10   ar
    31    10    11    1
    32    11    12   am
    33    12    13    1
    34    12    14    2
    35    11    15    1
    36    15    16    1
    37    15     1    1
    38    39    29   ar
    39    10     5   ar
    40    39    34   ar
    41    24    25    1
    42    19    20    1
@<TRIPOS>MOLECULE
*****
 39 42 0 0 0
SMALL
GASTEIGER

@<TRIPOS>ATOM
      1 C          61.5905   94.9523   -4.4728 C.3     1  UNL1        0.1678
      2 C          61.6772   95.2547   -3.0062 C.2     1  UNL1        0.2492
      3 O          63.0640   95.3734   -2.4470 O.2     1  UNL1       -0.2727
      4 N          60.5605   95.4542   -2.0248 N.am    1  UNL1       -0.2518
      5 C          59.0812   95.4005   -2.2676 C.ar    1  UNL1        0.0679
      6 C          58.3093   95.6582   -1.0076 C.ar    1  UNL1        0.0169
      7 C          56.8096   95.6495   -1.0318 C.ar    1  UNL1        0.0116
      8 C          56.0817   95.3831   -2.3160 C.ar    1  UNL1        0.0698
      9 C          56.8536   95.1253   -3.5760 C.ar    1  UNL1        0.0264
     10 C          58.3533   95.1340   -3.5518 C.ar    1  UNL1        0.0682
     11 N          58.9250   94.8555   -4.9104 N.am    1  UNL1       -0.2570
     12 C          57.9235   94.6277   -6.0036 C.2     1  UNL1        0.2299
     13 C          56.4556   94.6865   -5.7003 C.3     1  UNL1        0.0952
     14 O          58.3899   94.3410   -7.4002 O.2     1  UNL1       -0.2745
     15 C          60.3656   94.7746   -5.3203 C.3     1  UNL1        0.1066
     16 C          60.6143   94.4766   -6.7692 C.3     1  UNL1        0.0242
     17 C          63.7277   93.5708   -4.9958 C.2     1  UNL1        0.2371
     18 O          63.2419   92.4769   -4.0917 O.2     1  UNL1       -0.2737
     19 N          62.9020   94.8085   -5.1864 N.am    1  UNL1       -0.2959
     20 H          63.2209   95.5264   -5.7797 H       1  UNL1        0.1499
     21 C          65.0393   93.4270   -5.7094 C.3     1  UNL1        0.1316
     22 C          65.7492   94.6432   -6.2263 C.3     1  UNL1        0.0270
     23 C          65.4487   91.3426   -7.2052 C.3     1  UNL1        0.0862
     24 N          65.6410   92.0672   -5.9060 N.3     1  UNL1       -0.2902
     25 H          66.6470   92.1681   -5.7712 H       1  UNL1        0.1237
     26 C          54.5819   95.3744   -2.3401 C.1     1  UNL1        0.1005
     27 N          53.0821   95.3657   -2.3643 N.1     1  UNL1       -0.1908
     28 C          60.9782   95.7460   -0.6140 C.3     1  UNL1        0.1245
     29 C          61.6841   94.6959    0.1917 C.ar    1  UNL1       -0.0059
     30 C          61.1896   93.2798    0.1755 C.ar    1  UNL1       -0.0242
     31 C          60.5863   92.9080   -0.1896 C.3     1  UNL1        0.0308
     32 C          61.8954   92.2297    0.9811 C.ar    1  UNL1       -0.0045
     33 C          63.0957   92.5956    1.8029 C.ar    1  UNL1       -0.0003
     34 C          63.5903   94.0117    1.8190 C.ar    1  UNL1       -0.0003
     35 C          64.7906   94.3776    2.6408 C.ar    1  UNL1       -0.0000
     36 C          65.2851   95.7936    2.6569 C.ar    1  UNL1       -0.0000
     37 C          64.5792   96.8438    1.8513 C.ar    1  UNL1       -0.0000
     38 C          63.3789   96.4778    1.0295 C.ar    1  UNL1       -0.0003
     39 C          62.8844   95.0619    1.0134 C.ar    1  UNL1       -0.0027
@<TRIPOS>BOND
     1    23    24    1
     2    24    21    1
     3    21    22    1
     4    21    17    1
     5    17    18    2
     6    17    19   am
     7     1    19    1
     8     1     2    1
     9     2     3    2
    10     2     4   am
    11     4    28    1
    12    28    29    1
    13    29    30   ar
    14    30    31    1
    15    30    32   ar
    16    32    33   ar
    17    33    34   ar
    18    34    35   ar
    19    35    36   ar
    20    36    37   ar
    21    37    38   ar
    22    38    39   ar
    23     4     5    1
    24     5     6   ar
    25     6     7   ar
    26     7     8   ar
    27     8    26    1
    28    26    27    3
    29     8     9   ar
    30     9    10   ar
    31    10    11    1
    32    11    12   am
    33    12    13    1
    34    12    14    2
    35    11    15    1
    36    15    16    1
    37    15     1    1
    38    39    29   ar
    39    10     5   ar
    40    39    34   ar
    41    24    25    1
    42    19    20    1
@<TRIPOS>MOLECULE
*****
 39 42 0 0 0
SMALL
GASTEIGER

@<TRIPOS>ATOM
      1 C          63.1345   85.8953   12.0106 C.3     1  UNL1        0.1678
      2 C          62.8774   87.2143   12.6771 C.2     1  UNL1        0.2492
      3 O          63.4283   87.3607   14.0645 O.2     1  UNL1       -0.2727
      4 N          62.1421   88.4061   12.1396 N.am    1  UNL1       -0.2518
      5 C          61.4824   88.5734   10.8029 C.ar    1  UNL1        0.0679
      6 C          60.8557   89.9294   10.6669 C.ar    1  UNL1        0.0169
      7 C          60.1417   90.3021    9.4015 C.ar    1  UNL1        0.0116
      8 C          60.0543   89.3189    8.2722 C.ar    1  UNL1        0.0698
      9 C          60.6810   87.9629    8.4081 C.ar    1  UNL1        0.0264
     10 C          61.3950   87.5902    9.6735 C.ar    1  UNL1        0.0682
     11 N          61.9458   86.1967    9.6019 N.am    1  UNL1       -0.2570
     12 C          61.6883   85.4602    8.3208 C.2     1  UNL1        0.2299
     13 C          60.9228   86.1241    7.2147 C.3     1  UNL1        0.0952
     14 O          62.1963   84.0597    8.1457 O.2     1  UNL1       -0.2745
     15 C          62.7199   85.4424   10.6420 C.3     1  UNL1        0.1066
     16 C          63.1342   84.0514   10.2634 C.3     1  UNL1        0.0242
     17 C          63.2231   84.1141   13.8998 C.2     1  UNL1        0.2371
     18 O          61.7635   84.3289   14.1709 O.2     1  UNL1       -0.2737
     19 N          63.9086   84.8972   12.8196 N.am    1  UNL1       -0.2959
     20 H          64.8665   84.7562   12.6417 H       1  UNL1        0.1499
     21 C          63.9972   83.1160   14.7089 C.3     1  UNL1        0.1316
     22 C          65.0280   83.5855   15.6923 C.3     1  UNL1        0.0270
     23 C          63.4028   81.1019   13.1791 C.3     1  UNL1        0.0862
     24 N          63.7406   81.6484   14.5345 N.3     1  UNL1       -0.2902
     25 H          64.5819   81.1633   14.8463 H       1  UNL1        0.1237
     26 C          59.3402   89.6916    7.0067 C.1     1  UNL1        0.1005
     27 N          58.6261   90.0643    5.7414 N.1     1  UNL1       -0.1908
     28 C          62.0550   89.5869   13.0606 C.3     1  UNL1        0.1245
     29 C          63.3048   90.2954   13.4921 C.ar    1  UNL1       -0.0059
     30 C          63.7843   90.1750   14.9082 C.ar    1  UNL1       -0.0242
     31 C          63.5155   89.7912   15.5532 C.3     1  UNL1        0.0308
     32 C          65.0341   90.8834   15.3397 C.ar    1  UNL1       -0.0045
     33 C          65.8043   91.7123   14.3550 C.ar    1  UNL1       -0.0003
     34 C          65.3248   91.8327   12.9388 C.ar    1  UNL1       -0.0003
     35 C          66.0951   92.6616   11.9541 C.ar    1  UNL1       -0.0000
     36 C          65.6155   92.7820   10.5379 C.ar    1  UNL1       -0.0000
     37 C          64.3658   92.0735   10.1064 C.ar    1  UNL1       -0.0000
     38 C          63.5956   91.2446   11.0912 C.ar    1  UNL1       -0.0003
     39 C          64.0750   91.1242   12.5073 C.ar    1  UNL1       -0.0027
@<TRIPOS>BOND
     1    23    24    1
     2    24    21    1
     3    21    22    1
     4    21    17    1
     5    17    18    2
     6    17    19   am
     7     1    19    1
     8     1     2    1
     9     2     3    2
    10     2     4   am
    11     4    28    1
    12    28    29    1
    13    29    30   ar
    14    30    31    1
    15    30    32   ar
    16    32    33   ar
    17    33    34   ar
    18    34    35   ar
    19    35    36   ar
    20    36    37   ar
    21    37    38   ar
    22    38    39   ar
    23     4     5    1
    24     5     6   ar
    25     6     7   ar
    26     7     8   ar
    27     8    26    1
    28    26    27    3
    29     8     9   ar
    30     9    10   ar
    31    10    11    1
    32    11    12   am
    33    12    13    1
    34    12    14    2
    35    11    15    1
    36    15    16    1
    37    15     1    1
    38    39    29   ar
    39    10     5   ar
    40    39    34   ar
    41    24    25    1
    42    19    20    1
@<TRIPOS>MOLECULE
*****
 39 42 0 0 0
SMALL
GASTEIGER

@<TRIPOS>ATOM
      1 C          61.1855   92.8173   -0.1492 C.3     1  UNL1        0.1678
      2 C          59.9405   92.6624   -0.9715 C.2     1  UNL1        0.2492
      3 O          58.8087   91.9352   -0.3081 O.2     1  UNL1       -0.2727
      4 N          59.6778   93.1386   -2.3694 N.am    1  UNL1       -0.2518
      5 C          60.5951   93.8874   -3.2903 C.ar    1  UNL1        0.0679
      6 C          59.9364   94.1721   -4.6075 C.ar    1  UNL1        0.0169
      7 C          60.6843   94.9142   -5.6751 C.ar    1  UNL1        0.0116
      8 C          62.0909   95.3716   -5.4255 C.ar    1  UNL1        0.0698
      9 C          62.7496   95.0869   -4.1084 C.ar    1  UNL1        0.0264
     10 C          62.0017   94.3447   -3.0407 C.ar    1  UNL1        0.0682
     11 N          62.8384   94.1664   -1.8086 N.am    1  UNL1       -0.2570
     12 C          64.2212   94.7442   -1.8717 C.2     1  UNL1        0.2299
     13 C          64.6851   95.4456   -3.1139 C.3     1  UNL1        0.0952
     14 O          65.1402   94.6207   -0.6926 O.2     1  UNL1       -0.2745
     15 C          62.4752   93.4866   -0.5217 C.3     1  UNL1        0.1066
     16 C          63.5428   93.4745    0.5318 C.3     1  UNL1        0.0242
     17 C          60.4729   92.9771    2.3441 C.2     1  UNL1        0.2371
     18 O          59.8634   94.3227    2.0837 O.2     1  UNL1       -0.2737
     19 N          61.1340   92.2244    1.2277 N.am    1  UNL1       -0.2959
     20 H          61.5340   91.3412    1.3986 H       1  UNL1        0.1499
     21 C          60.4214   92.3842    3.7210 C.3     1  UNL1        0.1316
     22 C          59.1603   92.4717    4.5285 C.3     1  UNL1        0.0270
     23 C          62.7686   91.3204    3.3912 C.3     1  UNL1        0.0862
     24 N          61.6309   91.7039    4.2904 N.3     1  UNL1       -0.2902
     25 H          62.0139   92.3291    4.9995 H       1  UNL1        0.1237
     26 C          62.8388   96.1138   -6.4932 C.1     1  UNL1        0.1005
     27 N          63.5867   96.8558   -7.5609 N.1     1  UNL1       -0.1908
     28 C          58.3180   92.8247   -2.9191 C.3     1  UNL1        0.1245
     29 C          57.2502   93.8782   -2.9262 C.ar    1  UNL1       -0.0059
     30 C          56.9415   94.6415   -1.6724 C.ar    1  UNL1       -0.0242
     31 C          57.2306   94.6268   -0.9297 C.3     1  UNL1        0.0308
     32 C          55.8737   95.6950   -1.6795 C.ar    1  UNL1       -0.0045
     33 C          55.1148   95.9853   -2.9403 C.ar    1  UNL1       -0.0003
     34 C          55.4236   95.2220   -4.1942 C.ar    1  UNL1       -0.0003
     35 C          54.6647   95.5122   -5.4551 C.ar    1  UNL1       -0.0000
     36 C          54.9735   94.7489   -6.7088 C.ar    1  UNL1       -0.0000
     37 C          56.0412   93.6953   -6.7018 C.ar    1  UNL1       -0.0000
     38 C          56.8001   93.4051   -5.4409 C.ar    1  UNL1       -0.0003
     39 C          56.4913   94.1684   -4.1871 C.ar    1  UNL1       -0.0027
@<TRIPOS>BOND
     1    23    24    1
     2    24    21    1
     3    21    22    1
     4    21    17    1
     5    17    18    2
     6    17    19   am
     7     1    19    1
     8     1     2    1
     9     2     3    2
    10     2     4   am
    11     4    28    1
    12    28    29    1
    13    29    30   ar
    14    30    31    1
    15    30    32   ar
    16    32    33   ar
    17    33    34   ar
    18    34    35   ar
    19    35    36   ar
    20    36    37   ar
    21    37    38   ar
    22    38    39   ar
    23     4     5    1
    24     5     6   ar
    25     6     7   ar
    26     7     8   ar
    27     8    26    1
    28    26    27    3
    29     8     9   ar
    30     9    10   ar
    31    10    11    1
    32    11    12   am
    33    12    13    1
    34    12    14    2
    35    11    15    1
    36    15    16    1
    37    15     1    1
    38    39    29   ar
    39    10     5   ar
    40    39    34   ar
    41    24    25    1
    42    19    20    1
