@<TRIPOS>MOLECULE
*****
 41 46 0 0 0
SMALL
GASTEIGER

@<TRIPOS>ATOM
      1 N          58.6534   94.7329   -2.9597 N.3     1  UNL1       -0.2676
      2 C          60.1265   95.0002   -2.8686 C.3     1  UNL1        0.0746
      3 C          60.8979   94.5467   -1.6648 C.3     1  UNL1        0.0450
      4 C          60.1962   93.8260   -0.5521 C.3     1  UNL1        0.1405
      5 C          58.7230   93.5588   -0.6432 C.3     1  UNL1        0.0450
      6 C          57.9516   94.0122   -1.8470 C.3     1  UNL1        0.0746
      7 C          59.6337   93.0980    0.6327 C.2     1  UNL1        0.2529
      8 O          58.2011   92.6957    0.8216 O.2     1  UNL1       -0.2724
      9 N          60.7555   92.8429    1.5954 N.am    1  UNL1       -0.1907
     10 C          62.0112   93.4133    1.0056 C.2     1  UNL1        0.3231
     11 O          63.3733   93.3817    1.6327 O.2     1  UNL1       -0.2511
     12 N          61.6656   94.0209   -0.3216 N.am    1  UNL1       -0.2071
     13 C          60.6415   92.1408    2.9160 C.ar    1  UNL1        0.0622
     14 C          61.8010   91.3525    3.4488 C.ar    1  UNL1        0.0154
     15 C          61.6870   90.6504    4.7694 C.ar    1  UNL1        0.0013
     16 C          60.4135   90.7366    5.5572 C.ar    1  UNL1        0.0001
     17 C          59.2540   91.5249    5.0244 C.ar    1  UNL1        0.0013
     18 C          59.3679   92.2271    3.7038 C.ar    1  UNL1        0.0154
     19 C          60.2996   90.0344    6.8778 C.ar    1  UNL1        0.0000
     20 C          61.1308   90.4865    8.0418 C.ar    1  UNL1        0.0000
     21 C          61.0168   89.7844    9.3624 C.ar    1  UNL1        0.0011
     22 C          60.0716   88.6301    9.5191 C.ar    1  UNL1        0.0140
     23 C          59.2404   88.1781    8.3551 C.ar    1  UNL1        0.0011
     24 C          59.3544   88.8803    7.0345 C.ar    1  UNL1        0.0000
     25 C          59.9576   87.9280   10.8397 C.2     1  UNL1        0.0729
     26 O          59.1366   88.5306   11.9410 O.co2   1  UNL1       -0.5446
     27 O          60.6646   86.6234   11.0589 O.co2   1  UNL1       -0.5446
     28 C          62.6214   94.7034   -1.2546 C.ar    1  UNL1        0.2276
     29 N          63.3105   93.9169   -2.3299 N.ar    1  UNL1       -0.2117
     30 C          64.2663   94.5995   -3.2629 C.ar    1  UNL1        0.1034
     31 C          64.5330   96.0688   -3.1206 C.ar    1  UNL1        0.0414
     32 C          63.8438   96.8554   -2.0452 C.ar    1  UNL1        0.1034
     33 N          62.8880   96.1727   -1.1123 N.ar    1  UNL1       -0.2117
     34 C          57.8819   95.1864   -4.1636 C.3     1  UNL1        0.1183
     35 C          59.6485   94.6567   -6.5298 C.3     1  UNL1        0.0323
     36 C          58.3461   93.9262   -6.3877 C.ar    1  UNL1       -0.0069
     37 C          57.9271   92.9308   -7.4286 C.ar    1  UNL1       -0.0015
     38 C          56.6247   92.2002   -7.2864 C.ar    1  UNL1        0.0203
     39 C          55.7414   92.4651   -6.1034 C.ar    1  UNL1        0.0985
     40 N          56.1605   93.4605   -5.0624 N.ar    1  UNL1       -0.2471
     41 C          57.4628   94.1910   -5.2045 C.ar    1  UNL1        0.0712
@<TRIPOS>UNITY_ATOM_ATTR
26 1
charge -1
@<TRIPOS>BOND
     1    35    36    1
     2    36    37   ar
     3    37    38   ar
     4    38    39   ar
     5    39    40   ar
     6    40    41   ar
     7    41    34    1
     8    34     1    1
     9     1     2    1
    10     2     3    1
    11     3     4    1
    12     4     5    1
    13     5     6    1
    14     4     7    1
    15     7     8    2
    16     7     9   am
    17     9    13    1
    18    13    14   ar
    19    14    15   ar
    20    15    16   ar
    21    16    19    1
    22    19    20   ar
    23    20    21   ar
    24    21    22   ar
    25    22    25    1
    26    25    26   ar
    27    25    27   ar
    28    22    23   ar
    29    23    24   ar
    30    16    17   ar
    31    17    18   ar
    32     9    10   am
    33    10    11    2
    34    10    12   am
    35    12    28    1
    36    28    29   ar
    37    29    30   ar
    38    30    31   ar
    39    31    32   ar
    40    32    33   ar
    41    41    36   ar
    42     6     1    1
    43    18    13   ar
    44    33    28   ar
    45    12     4    1
    46    24    19   ar
@<TRIPOS>MOLECULE
*****
 41 46 0 0 0
SMALL
GASTEIGER

@<TRIPOS>ATOM
      1 N          58.7233   95.2326   -2.9337 N.3     1  UNL1       -0.2676
      2 C          60.2166   95.3677   -2.8917 C.3     1  UNL1        0.0746
      3 C          60.9878   94.8101   -1.7323 C.3     1  UNL1        0.0450
      4 C          60.2657   94.1174   -0.6148 C.3     1  UNL1        0.1405
      5 C          58.7724   93.9823   -0.6568 C.3     1  UNL1        0.0450
      6 C          58.0012   94.5399   -1.8162 C.3     1  UNL1        0.0746
      7 C          59.6842   93.4031    0.5691 C.2     1  UNL1        0.2529
      8 O          58.2294   93.1209    0.8014 O.2     1  UNL1       -0.2724
      9 N          60.8130   93.0204    1.4800 N.am    1  UNL1       -0.1907
     10 C          62.0921   93.4983    0.8590 C.2     1  UNL1        0.3231
     11 O          63.4677   93.3281    1.4320 O.2     1  UNL1       -0.2511
     12 N          61.7539   94.1763   -0.4356 N.am    1  UNL1       -0.2071
     13 C          60.6851   92.2884    2.7830 C.ar    1  UNL1        0.0622
     14 C          59.3954   92.3374    3.5472 C.ar    1  UNL1        0.0154
     15 C          59.2675   91.6054    4.8502 C.ar    1  UNL1        0.0013
     16 C          60.4293   90.8245    5.3889 C.ar    1  UNL1        0.0001
     17 C          61.7190   90.7755    4.6246 C.ar    1  UNL1        0.0013
     18 C          61.8469   91.5075    3.3216 C.ar    1  UNL1        0.0154
     19 C          60.3014   90.0925    6.6919 C.ar    1  UNL1        0.0000
     20 C          59.3528   88.9368    6.8130 C.ar    1  UNL1        0.0000
     21 C          59.2249   88.2048    8.1160 C.ar    1  UNL1        0.0011
     22 C          60.0456   88.6285    9.2980 C.ar    1  UNL1        0.0140
     23 C          60.9942   89.7842    9.1769 C.ar    1  UNL1        0.0011
     24 C          61.1220   90.5162    7.8739 C.ar    1  UNL1        0.0000
     25 C          59.9177   87.8965   10.6010 C.2     1  UNL1        0.0729
     26 O          59.2211   88.5451   11.7604 O.co2   1  UNL1       -0.5446
     27 O          60.4863   86.5159   10.7447 O.co2   1  UNL1       -0.5446
     28 C          62.7319   94.8031   -1.3845 C.ar    1  UNL1        0.2276
     29 N          63.2865   94.0040   -2.5264 N.ar    1  UNL1       -0.2117
     30 C          64.2646   94.6309   -3.4752 C.ar    1  UNL1        0.1034
     31 C          64.6882   96.0569   -3.2822 C.ar    1  UNL1        0.0414
     32 C          64.1336   96.8560   -2.1403 C.ar    1  UNL1        0.1034
     33 N          63.1555   96.2291   -1.1915 N.ar    1  UNL1       -0.2117
     34 C          57.9521   95.7902   -4.0932 C.3     1  UNL1        0.1183
     35 C          56.1532   94.7758   -6.2692 C.3     1  UNL1        0.0323
     36 C          55.5680   95.4689   -5.0746 C.ar    1  UNL1       -0.0069
     37 C          54.0835   95.6548   -4.9680 C.ar    1  UNL1       -0.0015
     38 C          53.4983   96.3479   -3.7733 C.ar    1  UNL1        0.0203
     39 C          54.3977   96.8551   -2.6853 C.ar    1  UNL1        0.0985
     40 N          55.8823   96.6692   -2.7919 N.ar    1  UNL1       -0.2471
     41 C          56.4675   95.9761   -3.9865 C.ar    1  UNL1        0.0712
@<TRIPOS>UNITY_ATOM_ATTR
26 1
charge -1
@<TRIPOS>BOND
     1    35    36    1
     2    36    37   ar
     3    37    38   ar
     4    38    39   ar
     5    39    40   ar
     6    40    41   ar
     7    41    34    1
     8    34     1    1
     9     1     2    1
    10     2     3    1
    11     3     4    1
    12     4     5    1
    13     5     6    1
    14     4     7    1
    15     7     8    2
    16     7     9   am
    17     9    13    1
    18    13    14   ar
    19    14    15   ar
    20    15    16   ar
    21    16    19    1
    22    19    20   ar
    23    20    21   ar
    24    21    22   ar
    25    22    25    1
    26    25    26   ar
    27    25    27   ar
    28    22    23   ar
    29    23    24   ar
    30    16    17   ar
    31    17    18   ar
    32     9    10   am
    33    10    11    2
    34    10    12   am
    35    12    28    1
    36    28    29   ar
    37    29    30   ar
    38    30    31   ar
    39    31    32   ar
    40    32    33   ar
    41    41    36   ar
    42     6     1    1
    43    18    13   ar
    44    33    28   ar
    45    12     4    1
    46    24    19   ar
