@<TRIPOS>MOLECULE
*****
 37 39 0 0 0
SMALL
GASTEIGER

@<TRIPOS>ATOM
      1 C          63.5278   86.5057   15.1507 C.ar    1  UNL1        0.0505
      2 C          63.1487   86.7853   16.5749 C.ar    1  UNL1        0.0170
      3 C          63.1304   88.1965   17.0829 C.ar    1  UNL1        0.0307
      4 C          63.4913   89.3281   16.1668 C.ar    1  UNL1        0.1402
      5 F          63.4731   90.7394   16.6748 F       1  UNL1       -0.2044
      6 C          63.8705   89.0485   14.7427 C.ar    1  UNL1        0.0528
      7 C          63.8887   87.6373   14.2347 C.ar    1  UNL1        0.0167
      8 C          64.2314   90.1802   13.8266 C.3     1  UNL1        0.2223
      9 C          63.0006   89.6697   13.1377 C.3     1  UNL1        0.0607
     10 C          65.3368   90.2976   14.8336 C.3     1  UNL1        0.1959
     11 O          66.3757   91.3693   14.6854 O.3     1  UNL1       -0.3357
     12 C          66.3092   92.3237   13.5300 C.3     1  UNL1        0.2740
     13 C          66.6700   93.4553   12.6140 C.3     1  UNL1        0.0512
     14 C          65.2037   92.2063   12.5230 C.2     1  UNL1        0.3217
     15 N          65.1371   93.1606   11.3677 N.pl3   1  UNL1       -0.2480
     16 N          64.1648   91.1345   12.6713 N.2     1  UNL1       -0.0692
     17 H          65.8189   93.8641   11.2703 H       1  UNL1        0.2882
     18 H          64.4115   93.0835   10.7068 H       1  UNL1        0.2882
     19 C          67.5400   92.8341   14.2190 C.3     1  UNL1        0.4305
     20 F          68.7708   93.3446   14.9079 F       1  UNL1       -0.1670
     21 F          66.7292   93.9191   14.8636 F       1  UNL1       -0.1670
     22 F          68.3507   91.7492   13.5743 F       1  UNL1       -0.1670
     23 C          62.7667   84.7294   13.4142 C.2     1  UNL1        0.2669
     24 O          61.9691   85.7757   12.6936 O.2     1  UNL1       -0.2682
     25 N          63.5460   85.0944   14.6427 N.am    1  UNL1       -0.2792
     26 H          64.0695   84.4077   15.1157 H       1  UNL1        0.1552
     27 C          63.4871   84.1733   10.5555 C.3     1  UNL1        0.0329
     28 C          63.1451   83.0401   11.4769 C.ar    1  UNL1        0.0033
     29 C          63.1633   81.6289   10.9689 C.ar    1  UNL1        0.0361
     30 C          62.8213   80.4957   11.8903 C.ar    1  UNL1        0.1631
     31 C          62.4611   80.7737   13.3196 C.ar    1  UNL1        0.1359
     32 N          62.4429   82.1849   13.8275 N.ar    1  UNL1       -0.2364
     33 C          62.7849   83.3182   12.9062 C.ar    1  UNL1        0.1310
     34 O          62.8395   79.0844   11.3823 O.3     1  UNL1       -0.4220
     35 C          62.9123   78.8190    9.9077 C.3     1  UNL1        0.5087
     36 F          61.9665   79.5131    8.9731 F       1  UNL1       -0.1550
     37 F          63.9311   77.8594    9.3678 F       1  UNL1       -0.1550
@<TRIPOS>BOND
     1    27    28    1
     2    28    29   ar
     3    29    30   ar
     4    30    34    1
     5    34    35    1
     6    35    36    1
     7    35    37    1
     8    30    31   ar
     9    31    32   ar
    10    32    33   ar
    11    33    23    1
    12    23    24    2
    13    23    25   am
    14    25     1    1
    15     1     2   ar
    16     2     3   ar
    17     3     4   ar
    18     4     5    1
    19     4     6   ar
    20     6     8    1
    21     8     9    1
    22     8    10    1
    23    10    11    1
    24    11    12    1
    25    12    13    1
    26    12    19    1
    27    19    20    1
    28    19    21    1
    29    19    22    1
    30    12    14    1
    31    14    15    1
    32    14    16    2
    33     6     7   ar
    34    33    28   ar
    35     7     1   ar
    36    16     8    1
    37    25    26    1
    38    15    17    1
    39    15    18    1
@<TRIPOS>MOLECULE
*****
 37 39 0 0 0
SMALL
GASTEIGER

@<TRIPOS>ATOM
      1 C          62.4305   89.2898   11.1170 C.ar    1  UNL1        0.0505
      2 C          61.1318   89.6944   10.4849 C.ar    1  UNL1        0.0170
      3 C          60.2696   88.6643    9.8174 C.ar    1  UNL1        0.0307
      4 C          60.7061   87.2297    9.7821 C.ar    1  UNL1        0.1402
      5 F          59.8439   86.1996    9.1145 F       1  UNL1       -0.2044
      6 C          62.0048   86.8252   10.4142 C.ar    1  UNL1        0.0528
      7 C          62.8670   87.8552   11.0817 C.ar    1  UNL1        0.0167
      8 C          62.4414   85.3905   10.3788 C.3     1  UNL1        0.2223
      9 C          62.6420   85.7594    8.9388 C.3     1  UNL1        0.0607
     10 C          62.0892   85.5198   11.8311 C.3     1  UNL1        0.1959
     11 O          62.2431   84.3426   12.7479 O.3     1  UNL1       -0.3357
     12 C          62.7493   83.0361   12.2124 C.3     1  UNL1        0.2740
     13 C          63.1858   81.6015   12.1769 C.3     1  UNL1        0.0512
     14 C          63.1015   82.9067   10.7601 C.2     1  UNL1        0.3217
     15 N          63.6077   81.6003   10.2245 N.pl3   1  UNL1       -0.2480
     16 N          62.9475   84.0840    9.8432 N.2     1  UNL1       -0.0692
     17 H          63.7088   80.8276   10.8262 H       1  UNL1        0.2882
     18 H          63.8388   81.5154    9.2713 H       1  UNL1        0.2882
     19 C          62.5487   82.6672   13.6524 C.3     1  UNL1        0.4305
     20 F          62.3481   82.2983   15.0925 F       1  UNL1       -0.1670
     21 F          61.5518   81.6227   13.2460 F       1  UNL1       -0.1670
     22 F          63.5456   83.7117   14.0588 F       1  UNL1       -0.1670
     23 C          64.0368   89.9754   13.0406 C.2     1  UNL1        0.2669
     24 O          63.9186   88.6008   13.6292 O.2     1  UNL1       -0.2682
     25 N          63.2927   90.3199   11.7845 N.am    1  UNL1       -0.2792
     26 H          63.3703   91.2221   11.3982 H       1  UNL1        0.1552
     27 C          63.7446   90.4997   15.9799 C.3     1  UNL1        0.0329
     28 C          64.7529   91.2676   15.1777 C.ar    1  UNL1        0.0033
     29 C          65.6151   92.2977   15.8452 C.ar    1  UNL1        0.0361
     30 C          66.6234   93.0657   15.0429 C.ar    1  UNL1        0.1631
     31 C          66.7695   92.8036   13.5733 C.ar    1  UNL1        0.1359
     32 N          65.9073   91.7735   12.9059 N.ar    1  UNL1       -0.2364
     33 C          64.8990   91.0055   13.7081 C.ar    1  UNL1        0.1310
     34 O          67.4856   94.0958   15.7105 O.3     1  UNL1       -0.4220
     35 C          68.8909   93.7539   16.1081 C.3     1  UNL1        0.5087
     36 F          69.9661   94.7972   16.0343 F       1  UNL1       -0.1550
     37 F          69.2211   92.3687   16.5797 F       1  UNL1       -0.1550
@<TRIPOS>BOND
     1    27    28    1
     2    28    29   ar
     3    29    30   ar
     4    30    34    1
     5    34    35    1
     6    35    36    1
     7    35    37    1
     8    30    31   ar
     9    31    32   ar
    10    32    33   ar
    11    33    23    1
    12    23    24    2
    13    23    25   am
    14    25     1    1
    15     1     2   ar
    16     2     3   ar
    17     3     4   ar
    18     4     5    1
    19     4     6   ar
    20     6     8    1
    21     8     9    1
    22     8    10    1
    23    10    11    1
    24    11    12    1
    25    12    13    1
    26    12    19    1
    27    19    20    1
    28    19    21    1
    29    19    22    1
    30    12    14    1
    31    14    15    1
    32    14    16    2
    33     6     7   ar
    34    33    28   ar
    35     7     1   ar
    36    16     8    1
    37    25    26    1
    38    15    17    1
    39    15    18    1
@<TRIPOS>MOLECULE
*****
 37 39 0 0 0
SMALL
GASTEIGER

@<TRIPOS>ATOM
      1 C          61.1710   87.4863   11.2491 C.ar    1  UNL1        0.0505
      2 C          59.7854   88.0424   11.3934 C.ar    1  UNL1        0.0170
      3 C          59.5779   89.5253   11.4822 C.ar    1  UNL1        0.0307
      4 C          60.7560   90.4520   11.4267 C.ar    1  UNL1        0.1402
      5 F          60.5486   91.9350   11.5155 F       1  UNL1       -0.2044
      6 C          62.1416   89.8959   11.2825 C.ar    1  UNL1        0.0528
      7 C          62.3491   88.4130   11.1937 C.ar    1  UNL1        0.0167
      8 C          63.3198   90.8227   11.2270 C.3     1  UNL1        0.2223
      9 C          62.8910   90.8601    9.7900 C.3     1  UNL1        0.0607
     10 C          63.3394   90.4635   12.6831 C.3     1  UNL1        0.1959
     11 O          64.3882   91.0440   13.5848 O.3     1  UNL1       -0.3357
     12 C          65.4174   91.9838   13.0303 C.3     1  UNL1        0.2740
     13 C          66.5955   92.9106   12.9747 C.3     1  UNL1        0.0512
     14 C          65.3978   92.3431   11.5741 C.2     1  UNL1        0.3217
     15 N          66.4270   93.2829   11.0195 N.pl3   1  UNL1       -0.2480
     16 N          64.3489   91.7625   10.6724 N.2     1  UNL1       -0.0692
     17 H          67.1153   93.6639   11.6112 H       1  UNL1        0.2882
     18 H          66.4140   93.5186   10.0637 H       1  UNL1        0.2882
     19 C          65.8461   91.9464   14.4672 C.3     1  UNL1        0.4305
     20 F          66.2749   91.9090   15.9042 F       1  UNL1       -0.1670
     21 F          66.0308   93.4350   14.4509 F       1  UNL1       -0.1670
     22 F          65.6615   90.4580   14.4835 F       1  UNL1       -0.1670
     23 C          62.3650   85.3284   12.0665 C.2     1  UNL1        0.2669
     24 O          63.1441   86.1364   13.0616 O.2     1  UNL1       -0.2682
     25 N          61.3785   86.0033   11.1604 N.am    1  UNL1       -0.2792
     26 H          60.8671   85.4729   10.5073 H       1  UNL1        0.1552
     27 C          63.6468   84.1362    9.6302 C.3     1  UNL1        0.0329
     28 C          63.2133   83.2494   10.7596 C.ar    1  UNL1        0.0033
     29 C          63.4207   81.7665   10.6708 C.ar    1  UNL1        0.0361
     30 C          62.9873   80.8796   11.8003 C.ar    1  UNL1        0.1631
     31 C          62.3464   81.4756   13.0184 C.ar    1  UNL1        0.1359
     32 N          62.1390   82.9585   13.1072 N.ar    1  UNL1       -0.2364
     33 C          62.5724   83.8454   11.9777 C.ar    1  UNL1        0.1310
     34 O          63.1947   79.3966   11.7115 O.3     1  UNL1       -0.4220
     35 C          62.8572   78.6666   10.4453 C.3     1  UNL1        0.5087
     36 F          62.9060   77.1679   10.4078 F       1  UNL1       -0.1550
     37 F          62.4709   79.4354    9.2165 F       1  UNL1       -0.1550
@<TRIPOS>BOND
     1    27    28    1
     2    28    29   ar
     3    29    30   ar
     4    30    34    1
     5    34    35    1
     6    35    36    1
     7    35    37    1
     8    30    31   ar
     9    31    32   ar
    10    32    33   ar
    11    33    23    1
    12    23    24    2
    13    23    25   am
    14    25     1    1
    15     1     2   ar
    16     2     3   ar
    17     3     4   ar
    18     4     5    1
    19     4     6   ar
    20     6     8    1
    21     8     9    1
    22     8    10    1
    23    10    11    1
    24    11    12    1
    25    12    13    1
    26    12    19    1
    27    19    20    1
    28    19    21    1
    29    19    22    1
    30    12    14    1
    31    14    15    1
    32    14    16    2
    33     6     7   ar
    34    33    28   ar
    35     7     1   ar
    36    16     8    1
    37    25    26    1
    38    15    17    1
    39    15    18    1
@<TRIPOS>MOLECULE
*****
 37 39 0 0 0
SMALL
GASTEIGER

@<TRIPOS>ATOM
      1 C          61.4629   87.3368   11.0014 C.ar    1  UNL1        0.0505
      2 C          60.2557   87.9959   10.4027 C.ar    1  UNL1        0.0170
      3 C          60.1157   89.4885   10.4493 C.ar    1  UNL1        0.0307
      4 C          61.1828   90.3222   11.0944 C.ar    1  UNL1        0.1402
      5 F          61.0428   91.8149   11.1410 F       1  UNL1       -0.2044
      6 C          62.3899   89.6631   11.6931 C.ar    1  UNL1        0.0528
      7 C          62.5300   88.1704   11.6465 C.ar    1  UNL1        0.0167
      8 C          63.4571   90.4968   12.3383 C.3     1  UNL1        0.2223
      9 C          62.9164   89.7869   13.5441 C.3     1  UNL1        0.0607
     10 C          63.6271   90.9171   10.9085 C.3     1  UNL1        0.1959
     11 O          64.6765   91.9245   10.5426 O.3     1  UNL1       -0.3357
     12 C          65.5558   92.5116   11.6066 C.3     1  UNL1        0.2740
     13 C          66.6229   93.3453   12.2518 C.3     1  UNL1        0.0512
     14 C          65.3858   92.0914   13.0364 C.2     1  UNL1        0.3217
     15 N          66.2651   92.6785   14.1004 N.pl3   1  UNL1       -0.2480
     16 N          64.3364   91.0839   13.4023 N.2     1  UNL1       -0.0692
     17 H          66.9538   93.3397   13.8604 H       1  UNL1        0.2882
     18 H          66.1534   92.4026   15.0389 H       1  UNL1        0.2882
     19 C          66.0965   93.2215   10.4008 C.3     1  UNL1        0.4305
     20 F          66.6372   93.9313    9.1950 F       1  UNL1       -0.1670
     21 F          66.9523   92.0310   10.0838 F       1  UNL1       -0.1670
     22 F          65.2407   94.4118   10.7179 F       1  UNL1       -0.1670
     23 C          62.4657   85.1399   11.9597 C.2     1  UNL1        0.2669
     24 O          63.1885   85.9285   13.0112 O.2     1  UNL1       -0.2682
     25 N          61.6029   85.8440   10.9548 N.am    1  UNL1       -0.2792
     26 H          61.1285   85.3264   10.2647 H       1  UNL1        0.1552
     27 C          63.7640   83.8281    9.5946 C.3     1  UNL1        0.0329
     28 C          63.2549   82.9913   10.7306 C.ar    1  UNL1        0.0033
     29 C          63.3948   81.4986   10.6841 C.ar    1  UNL1        0.0361
     30 C          62.8857   80.6618   11.8201 C.ar    1  UNL1        0.1631
     31 C          62.2365   81.3176   13.0026 C.ar    1  UNL1        0.1359
     32 N          62.0965   82.8103   13.0491 N.ar    1  UNL1       -0.2364
     33 C          62.6057   83.6471   11.9131 C.ar    1  UNL1        0.1310
     34 O          63.0257   79.1690   11.7735 O.3     1  UNL1       -0.4220
     35 C          62.8850   78.4429   10.4685 C.3     1  UNL1        0.5087
     36 F          62.4039   79.1750    9.2510 F       1  UNL1       -0.1550
     37 F          63.2255   76.9846   10.3811 F       1  UNL1       -0.1550
@<TRIPOS>BOND
     1    27    28    1
     2    28    29   ar
     3    29    30   ar
     4    30    34    1
     5    34    35    1
     6    35    36    1
     7    35    37    1
     8    30    31   ar
     9    31    32   ar
    10    32    33   ar
    11    33    23    1
    12    23    24    2
    13    23    25   am
    14    25     1    1
    15     1     2   ar
    16     2     3   ar
    17     3     4   ar
    18     4     5    1
    19     4     6   ar
    20     6     8    1
    21     8     9    1
    22     8    10    1
    23    10    11    1
    24    11    12    1
    25    12    13    1
    26    12    19    1
    27    19    20    1
    28    19    21    1
    29    19    22    1
    30    12    14    1
    31    14    15    1
    32    14    16    2
    33     6     7   ar
    34    33    28   ar
    35     7     1   ar
    36    16     8    1
    37    25    26    1
    38    15    17    1
    39    15    18    1
@<TRIPOS>MOLECULE
*****
 37 39 0 0 0
SMALL
GASTEIGER

@<TRIPOS>ATOM
      1 C          63.4740   86.1844   15.3872 C.ar    1  UNL1        0.0505
      2 C          63.0562   86.4850   16.7961 C.ar    1  UNL1        0.0170
      3 C          63.0650   87.8993   17.2955 C.ar    1  UNL1        0.0307
      4 C          63.4915   89.0132   16.3859 C.ar    1  UNL1        0.1402
      5 F          63.5003   90.4276   16.8852 F       1  UNL1       -0.2044
      6 C          63.9093   88.7126   14.9769 C.ar    1  UNL1        0.0528
      7 C          63.9005   87.2982   14.4776 C.ar    1  UNL1        0.0167
      8 C          64.3359   89.8265   14.0673 C.3     1  UNL1        0.2223
      9 C          65.2348   90.0885   15.2393 C.3     1  UNL1        0.0607
     10 C          63.2889   89.1777   13.2113 C.3     1  UNL1        0.1959
     11 O          62.9806   89.7338   11.8528 O.3     1  UNL1       -0.3357
     12 C          63.7194   90.9387   11.3502 C.3     1  UNL1        0.2740
     13 C          64.1459   92.0526   10.4407 C.3     1  UNL1        0.0512
     14 C          64.7663   91.5875   12.2062 C.2     1  UNL1        0.3217
     15 N          65.5051   92.7923   11.7037 N.pl3   1  UNL1       -0.2480
     16 N          65.0746   91.0314   13.5649 N.2     1  UNL1       -0.0692
     17 H          65.3028   93.1573   10.8121 H       1  UNL1        0.2882
     18 H          66.1923   93.2181   12.2656 H       1  UNL1        0.2882
     19 C          62.8205   90.6767   10.1782 C.3     1  UNL1        0.4305
     20 F          61.9216   90.4147    9.0063 F       1  UNL1       -0.1670
     21 F          63.0333   92.0827    9.7007 F       1  UNL1       -0.1670
     22 F          62.6076   89.2708   10.6558 F       1  UNL1       -0.1670
     23 C          62.7231   84.4227   13.6314 C.2     1  UNL1        0.2669
     24 O          61.9898   85.4899   12.8742 O.2     1  UNL1       -0.2682
     25 N          63.4652   84.7699   14.8878 N.am    1  UNL1       -0.2792
     26 H          63.9465   84.0695   15.3848 H       1  UNL1        0.1552
     27 C          63.7128   83.8012   10.8684 C.3     1  UNL1        0.0329
     28 C          63.2092   82.6975   11.7506 C.ar    1  UNL1        0.0033
     29 C          63.2003   81.2831   11.2513 C.ar    1  UNL1        0.0361
     30 C          62.6967   80.1794   12.1335 C.ar    1  UNL1        0.1631
     31 C          62.2018   80.4902   13.5150 C.ar    1  UNL1        0.1359
     32 N          62.2106   81.9046   14.0142 N.ar    1  UNL1       -0.2364
     33 C          62.7143   83.0083   13.1320 C.ar    1  UNL1        0.1310
     34 O          62.6879   78.7650   11.6342 O.3     1  UNL1       -0.4220
     35 C          62.9351   78.4806   10.1823 C.3     1  UNL1        0.5087
     36 F          63.8579   77.3678    9.7825 F       1  UNL1       -0.1550
     37 F          62.2595   79.3093    9.1301 F       1  UNL1       -0.1550
@<TRIPOS>BOND
     1    27    28    1
     2    28    29   ar
     3    29    30   ar
     4    30    34    1
     5    34    35    1
     6    35    36    1
     7    35    37    1
     8    30    31   ar
     9    31    32   ar
    10    32    33   ar
    11    33    23    1
    12    23    24    2
    13    23    25   am
    14    25     1    1
    15     1     2   ar
    16     2     3   ar
    17     3     4   ar
    18     4     5    1
    19     4     6   ar
    20     6     8    1
    21     8     9    1
    22     8    10    1
    23    10    11    1
    24    11    12    1
    25    12    13    1
    26    12    19    1
    27    19    20    1
    28    19    21    1
    29    19    22    1
    30    12    14    1
    31    14    15    1
    32    14    16    2
    33     6     7   ar
    34    33    28   ar
    35     7     1   ar
    36    16     8    1
    37    25    26    1
    38    15    17    1
    39    15    18    1
@<TRIPOS>MOLECULE
*****
 37 39 0 0 0
SMALL
GASTEIGER

@<TRIPOS>ATOM
      1 C          62.8391   88.1324   11.8843 C.ar    1  UNL1        0.0505
      2 C          62.6490   88.8069   10.5581 C.ar    1  UNL1        0.0170
      3 C          63.0864   90.2294   10.3706 C.ar    1  UNL1        0.0307
      4 C          63.7139   90.9773   11.5093 C.ar    1  UNL1        0.1402
      5 F          64.1514   92.3999   11.3219 F       1  UNL1       -0.2044
      6 C          63.9040   90.3028   12.8356 C.ar    1  UNL1        0.0528
      7 C          63.4666   88.8803   13.0231 C.ar    1  UNL1        0.0167
      8 C          64.5315   91.0509   13.9744 C.3     1  UNL1        0.2223
      9 C          63.1286   90.9215   14.4892 C.3     1  UNL1        0.0607
     10 C          65.7165   90.9204   13.0640 C.3     1  UNL1        0.1959
     11 O          67.0417   91.4930   13.4712 O.3     1  UNL1       -0.3357
     12 C          67.1820   92.1961   14.7888 C.3     1  UNL1        0.2740
     13 C          67.8094   92.9441   15.9275 C.3     1  UNL1        0.0512
     14 C          65.9970   92.3266   15.6991 C.2     1  UNL1        0.3217
     15 N          66.1372   93.0297   17.0167 N.pl3   1  UNL1       -0.2480
     16 N          64.6717   91.7539   15.2919 N.2     1  UNL1       -0.0692
     17 H          67.0070   93.4055   17.2840 H       1  UNL1        0.2882
     18 H          65.3594   93.1153   17.6142 H       1  UNL1        0.2882
     19 C          68.5849   92.3254   14.2739 C.3     1  UNL1        0.4305
     20 F          69.9879   92.4548   13.7590 F       1  UNL1       -0.1670
     21 F          68.1785   91.6512   12.9970 F       1  UNL1       -0.1670
     22 F          68.9913   92.9996   15.5507 F       1  UNL1       -0.1670
     23 C          63.1566   85.8097   13.0044 C.2     1  UNL1        0.2669
     24 O          64.3490   86.3321   13.7497 O.2     1  UNL1       -0.2682
     25 N          62.4017   86.7098   12.0718 N.am    1  UNL1       -0.2792
     26 H          61.6191   86.3670   11.5827 H       1  UNL1        0.1552
     27 C          63.3289   83.8738   10.7191 C.3     1  UNL1        0.0329
     28 C          62.8053   83.4193   12.0492 C.ar    1  UNL1        0.0033
     29 C          62.3679   81.9968   12.2367 C.ar    1  UNL1        0.0361
     30 C          61.8443   81.5423   13.5669 C.ar    1  UNL1        0.1631
     31 C          61.7581   82.5102   14.7095 C.ar    1  UNL1        0.1359
     32 N          62.1956   83.9326   14.5220 N.ar    1  UNL1       -0.2364
     33 C          62.7191   84.3872   13.1919 C.ar    1  UNL1        0.1310
     34 O          61.4068   80.1197   13.7543 O.3     1  UNL1       -0.4220
     35 C          59.9744   79.8117   14.0755 C.3     1  UNL1        0.5087
     36 F          58.9869   80.9280   14.2446 F       1  UNL1       -0.1550
     37 F          59.5294   78.3872   14.2274 F       1  UNL1       -0.1550
@<TRIPOS>BOND
     1    27    28    1
     2    28    29   ar
     3    29    30   ar
     4    30    34    1
     5    34    35    1
     6    35    36    1
     7    35    37    1
     8    30    31   ar
     9    31    32   ar
    10    32    33   ar
    11    33    23    1
    12    23    24    2
    13    23    25   am
    14    25     1    1
    15     1     2   ar
    16     2     3   ar
    17     3     4   ar
    18     4     5    1
    19     4     6   ar
    20     6     8    1
    21     8     9    1
    22     8    10    1
    23    10    11    1
    24    11    12    1
    25    12    13    1
    26    12    19    1
    27    19    20    1
    28    19    21    1
    29    19    22    1
    30    12    14    1
    31    14    15    1
    32    14    16    2
    33     6     7   ar
    34    33    28   ar
    35     7     1   ar
    36    16     8    1
    37    25    26    1
    38    15    17    1
    39    15    18    1
@<TRIPOS>MOLECULE
*****
 37 39 0 0 0
SMALL
GASTEIGER

@<TRIPOS>ATOM
      1 C          63.1413   87.5155   12.3675 C.ar    1  UNL1        0.0505
      2 C          62.5557   88.1499   11.1408 C.ar    1  UNL1        0.0170
      3 C          62.5239   89.6440   11.0116 C.ar    1  UNL1        0.0307
      4 C          63.0777   90.5036   12.1089 C.ar    1  UNL1        0.1402
      5 F          63.0460   91.9978   11.9797 F       1  UNL1       -0.2044
      6 C          63.6633   89.8692   13.3356 C.ar    1  UNL1        0.0528
      7 C          63.6951   88.3752   13.4648 C.ar    1  UNL1        0.0167
      8 C          64.2171   90.7290   14.4330 C.3     1  UNL1        0.2223
      9 C          62.8323   90.4945   14.9595 C.3     1  UNL1        0.0607
     10 C          65.4096   90.6649   13.5254 C.3     1  UNL1        0.1959
     11 O          66.6750   91.3791   13.8979 O.3     1  UNL1       -0.3357
     12 C          66.7478   92.1574   15.1782 C.3     1  UNL1        0.2740
     13 C          67.3015   93.0171   16.2756 C.3     1  UNL1        0.0512
     14 C          65.5553   92.2214   16.0858 C.2     1  UNL1        0.3217
     15 N          65.6280   92.9997   17.3660 N.pl3   1  UNL1       -0.2480
     16 N          64.2899   91.5072   15.7132 N.2     1  UNL1       -0.0692
     17 H          66.4585   93.4684   17.6106 H       1  UNL1        0.2882
     18 H          64.8453   93.0417   17.9617 H       1  UNL1        0.2882
     19 C          68.1326   92.3919   14.6517 C.3     1  UNL1        0.4305
     20 F          69.5175   92.6264   14.1252 F       1  UNL1       -0.1670
     21 F          67.5563   92.9409   13.3803 F       1  UNL1       -0.1670
     22 F          68.7089   91.8429   15.9231 F       1  UNL1       -0.1670
     23 C          62.7113   85.1602   11.3587 C.2     1  UNL1        0.2669
     24 O          62.2177   85.7930   10.0915 O.2     1  UNL1       -0.2682
     25 N          63.1731   86.0214   12.4967 N.am    1  UNL1       -0.2792
     26 H          63.4971   85.6060   13.3284 H       1  UNL1        0.1552
     27 C          64.1044   83.5041    9.2810 C.3     1  UNL1        0.0329
     28 C          63.4396   82.8380   10.4491 C.ar    1  UNL1        0.0033
     29 C          63.4713   81.3440   10.5784 C.ar    1  UNL1        0.0361
     30 C          62.8066   80.6779   11.7465 C.ar    1  UNL1        0.1631
     31 C          62.1100   81.5059   12.7853 C.ar    1  UNL1        0.1359
     32 N          62.0783   83.0000   12.6561 N.ar    1  UNL1       -0.2364
     33 C          62.7431   83.6660   11.4880 C.ar    1  UNL1        0.1310
     34 O          62.8383   79.1838   11.8757 O.3     1  UNL1       -0.4220
     35 C          62.7796   78.3235   10.6484 C.3     1  UNL1        0.5087
     36 F          63.1782   76.8795   10.7249 F       1  UNL1       -0.1550
     37 F          62.3223   78.9072    9.3444 F       1  UNL1       -0.1550
@<TRIPOS>BOND
     1    27    28    1
     2    28    29   ar
     3    29    30   ar
     4    30    34    1
     5    34    35    1
     6    35    36    1
     7    35    37    1
     8    30    31   ar
     9    31    32   ar
    10    32    33   ar
    11    33    23    1
    12    23    24    2
    13    23    25   am
    14    25     1    1
    15     1     2   ar
    16     2     3   ar
    17     3     4   ar
    18     4     5    1
    19     4     6   ar
    20     6     8    1
    21     8     9    1
    22     8    10    1
    23    10    11    1
    24    11    12    1
    25    12    13    1
    26    12    19    1
    27    19    20    1
    28    19    21    1
    29    19    22    1
    30    12    14    1
    31    14    15    1
    32    14    16    2
    33     6     7   ar
    34    33    28   ar
    35     7     1   ar
    36    16     8    1
    37    25    26    1
    38    15    17    1
    39    15    18    1
@<TRIPOS>MOLECULE
*****
 37 39 0 0 0
SMALL
GASTEIGER

@<TRIPOS>ATOM
      1 C          62.2363   87.9416   11.1520 C.ar    1  UNL1        0.0505
      2 C          61.7312   88.4999    9.8546 C.ar    1  UNL1        0.0170
      3 C          62.0344   89.9205    9.4808 C.ar    1  UNL1        0.0307
      4 C          62.8428   90.7828   10.4043 C.ar    1  UNL1        0.1402
      5 F          63.1461   92.2035   10.0304 F       1  UNL1       -0.2044
      6 C          63.3479   90.2245   11.7016 C.ar    1  UNL1        0.0528
      7 C          63.0446   88.8039   12.0755 C.ar    1  UNL1        0.0167
      8 C          64.1563   91.0869   12.6252 C.3     1  UNL1        0.2223
      9 C          63.5379   90.1490   13.6192 C.3     1  UNL1        0.0607
     10 C          64.4939   91.7253   11.3105 C.3     1  UNL1        0.1959
     11 O          65.4251   92.9003   11.2645 O.3     1  UNL1       -0.3357
     12 C          66.0187   93.4370   12.5333 C.3     1  UNL1        0.2740
     13 C          66.8270   94.2993   13.4568 C.3     1  UNL1        0.0512
     14 C          65.6811   92.7986   13.8480 C.2     1  UNL1        0.3217
     15 N          66.2746   93.3352   15.1167 N.pl3   1  UNL1       -0.2480
     16 N          64.7498   91.6235   13.8939 N.2     1  UNL1       -0.0692
     17 H          66.8858   94.1064   15.0866 H       1  UNL1        0.2882
     18 H          66.0530   92.9161   15.9796 H       1  UNL1        0.2882
     19 C          66.6371   94.3749   11.5393 C.3     1  UNL1        0.4305
     20 F          67.2555   95.3128   10.5453 F       1  UNL1       -0.1670
     21 F          66.1045   95.5450   12.3121 F       1  UNL1       -0.1670
     22 F          67.1696   93.2047   10.7666 F       1  UNL1       -0.1670
     23 C          62.7542   85.8293   12.5733 C.2     1  UNL1        0.2669
     24 O          63.8787   86.5584   13.2471 O.2     1  UNL1       -0.2682
     25 N          61.9330   86.5208   11.5258 N.am    1  UNL1       -0.2792
     26 H          61.1950   86.0423   11.0836 H       1  UNL1        0.1552
     27 C          63.2874   83.6172   10.6183 C.3     1  UNL1        0.0329
     28 C          62.7175   83.3026   11.9696 C.ar    1  UNL1        0.0033
     29 C          62.4143   81.8820   12.3435 C.ar    1  UNL1        0.0361
     30 C          61.8444   81.5674   13.6949 C.ar    1  UNL1        0.1631
     31 C          61.5777   82.6734   14.6724 C.ar    1  UNL1        0.1359
     32 N          61.8810   84.0940   14.2986 N.ar    1  UNL1       -0.2364
     33 C          62.4509   84.4086   12.9472 C.ar    1  UNL1        0.1310
     34 O          61.5411   80.1466   14.0687 O.3     1  UNL1       -0.4220
     35 C          60.1172   79.6886   14.1824 C.3     1  UNL1        0.5087
     36 F          59.0013   80.6898   14.1352 F       1  UNL1       -0.1550
     37 F          59.8094   78.2294   14.3433 F       1  UNL1       -0.1550
@<TRIPOS>BOND
     1    27    28    1
     2    28    29   ar
     3    29    30   ar
     4    30    34    1
     5    34    35    1
     6    35    36    1
     7    35    37    1
     8    30    31   ar
     9    31    32   ar
    10    32    33   ar
    11    33    23    1
    12    23    24    2
    13    23    25   am
    14    25     1    1
    15     1     2   ar
    16     2     3   ar
    17     3     4   ar
    18     4     5    1
    19     4     6   ar
    20     6     8    1
    21     8     9    1
    22     8    10    1
    23    10    11    1
    24    11    12    1
    25    12    13    1
    26    12    19    1
    27    19    20    1
    28    19    21    1
    29    19    22    1
    30    12    14    1
    31    14    15    1
    32    14    16    2
    33     6     7   ar
    34    33    28   ar
    35     7     1   ar
    36    16     8    1
    37    25    26    1
    38    15    17    1
    39    15    18    1
@<TRIPOS>MOLECULE
*****
 37 39 0 0 0
SMALL
GASTEIGER

@<TRIPOS>ATOM
      1 C          62.7674   84.8813   10.6882 C.ar    1  UNL1        0.0505
      2 C          63.5709   83.6602   10.3516 C.ar    1  UNL1        0.0170
      3 C          64.2276   82.8698   11.4443 C.ar    1  UNL1        0.0307
      4 C          64.0807   83.3005   12.8736 C.ar    1  UNL1        0.1402
      5 F          64.7374   82.5101   13.9664 F       1  UNL1       -0.2044
      6 C          63.2772   84.5216   13.2102 C.ar    1  UNL1        0.0528
      7 C          62.6205   85.3119   12.1175 C.ar    1  UNL1        0.0167
      8 C          63.1304   84.9522   14.6396 C.3     1  UNL1        0.2223
      9 C          62.8214   83.4906   14.7748 C.3     1  UNL1        0.0607
     10 C          63.4903   86.2642   14.0079 C.3     1  UNL1        0.1959
     11 O          63.5962   87.4993   14.8525 O.3     1  UNL1       -0.3357
     12 C          63.3420   87.4223   16.3289 C.3     1  UNL1        0.2740
     13 C          63.1951   87.8529   17.7582 C.3     1  UNL1        0.0512
     14 C          62.9820   86.1103   16.9605 C.2     1  UNL1        0.3217
     15 N          62.7279   86.0332   18.4368 N.pl3   1  UNL1       -0.2480
     16 N          62.8762   84.8752   16.1158 N.2     1  UNL1       -0.0692
     17 H          62.7973   86.8438   18.9912 H       1  UNL1        0.2882
     18 H          62.4916   85.1721   18.8513 H       1  UNL1        0.2882
     19 C          63.6510   88.8839   16.1936 C.3     1  UNL1        0.4305
     20 F          63.9600   90.3455   16.0584 F       1  UNL1       -0.1670
     21 F          64.0615   88.6652   14.7675 F       1  UNL1       -0.1670
     22 F          63.2405   89.1026   17.6196 F       1  UNL1       -0.1670
     23 C          61.1481   86.7697    9.9386 C.2     1  UNL1        0.2669
     24 O          60.8422   87.0774   11.3744 O.2     1  UNL1       -0.2682
     25 N          62.1107   85.6717    9.5954 N.am    1  UNL1       -0.2792
     26 H          62.3115   85.4697    8.6530 H       1  UNL1        0.1552
     27 C          61.3263   89.7644    9.9385 C.3     1  UNL1        0.0329
     28 C          60.5805   89.0574    8.8458 C.ar    1  UNL1        0.0033
     29 C          59.9238   89.8477    7.7530 C.ar    1  UNL1        0.0361
     30 C          59.1781   89.1407    6.6603 C.ar    1  UNL1        0.1631
     31 C          59.0890   87.6434    6.6603 C.ar    1  UNL1        0.1359
     32 N          59.7457   86.8531    7.7531 N.ar    1  UNL1       -0.2364
     33 C          60.4914   87.5601    8.8458 C.ar    1  UNL1        0.1310
     34 O          58.5214   89.9311    5.5675 O.3     1  UNL1       -0.4220
     35 C          59.1447   91.2081    5.0871 C.3     1  UNL1        0.5087
     36 F          60.6307   91.2940    4.9017 F       1  UNL1       -0.1550
     37 F          58.2819   92.3993    4.7922 F       1  UNL1       -0.1550
@<TRIPOS>BOND
     1    27    28    1
     2    28    29   ar
     3    29    30   ar
     4    30    34    1
     5    34    35    1
     6    35    36    1
     7    35    37    1
     8    30    31   ar
     9    31    32   ar
    10    32    33   ar
    11    33    23    1
    12    23    24    2
    13    23    25   am
    14    25     1    1
    15     1     2   ar
    16     2     3   ar
    17     3     4   ar
    18     4     5    1
    19     4     6   ar
    20     6     8    1
    21     8     9    1
    22     8    10    1
    23    10    11    1
    24    11    12    1
    25    12    13    1
    26    12    19    1
    27    19    20    1
    28    19    21    1
    29    19    22    1
    30    12    14    1
    31    14    15    1
    32    14    16    2
    33     6     7   ar
    34    33    28   ar
    35     7     1   ar
    36    16     8    1
    37    25    26    1
    38    15    17    1
    39    15    18    1
