@<TRIPOS>MOLECULE
*****
 31 33 0 0 0
SMALL
GASTEIGER

@<TRIPOS>ATOM
      1 N          64.0096   85.6536   14.1648 N.am    1  UNL1       -0.2620
      2 C          64.6345   86.8932   14.7331 C.3     1  UNL1        0.1401
      3 C          64.2021   88.0576   13.8921 C.ar    1  UNL1        0.0830
      4 N          64.5055   89.5242   13.9764 N.ar    1  UNL1       -0.2524
      5 C          63.9168   90.4708   12.9728 C.ar    1  UNL1        0.0563
      6 C          64.2201   91.9374   13.0571 C.3     1  UNL1        0.0518
      7 C          63.0247   89.9508   11.8847 C.ar    1  UNL1        0.0072
      8 C          62.7213   88.4842   11.8004 C.ar    1  UNL1        0.0048
      9 C          63.3101   87.5376   12.8040 C.ar    1  UNL1        0.0686
     10 C          63.1911   86.0519   12.9726 C.2     1  UNL1        0.2509
     11 O          62.3936   85.1268   12.1018 O.2     1  UNL1       -0.2698
     12 C          61.8292   87.9642   10.7124 C.ar    1  UNL1        0.0106
     13 C          62.4198   87.2317    9.5442 C.ar    1  UNL1        0.0017
     14 C          61.5277   86.7117    8.4562 C.ar    1  UNL1        0.0114
     15 C          60.0451   86.9243    8.5363 C.ar    1  UNL1        0.0585
     16 CL         59.1530   86.4043    7.4483 Cl      1  UNL1       -0.0822
     17 C          59.4544   87.6569    9.7045 C.ar    1  UNL1        0.0228
     18 C          60.3465   88.1768   10.7925 C.ar    1  UNL1        0.0585
     19 CL         59.7559   88.9094   11.9606 Cl      1  UNL1       -0.0822
     20 C          62.4360   90.8974   10.8811 C.3     1  UNL1        0.0934
     21 N          63.3117   91.5222    9.8358 N.3     1  UNL1       -0.3174
     22 H          63.9843   92.1447   10.2835 H       1  UNL1        0.1192
     23 H          62.7360   92.0556    9.1844 H       1  UNL1        0.1192
     24 C          64.1744   84.2603   14.6956 C.3     1  UNL1        0.1798
     25 N          62.7519   82.1870   14.0416 N.am    1  UNL1       -0.2764
     26 C          61.5477   81.3182   14.2544 C.3     1  UNL1        0.1149
     27 C          62.9703   83.3916   14.9084 C.2     1  UNL1        0.2460
     28 O          61.9845   83.7273   15.9880 O.2     1  UNL1       -0.2730
     29 C          63.7376   81.8512   12.9620 C.3     1  UNL1        0.0935
     30 C          64.0815   82.5444   10.4818 C.3     1  UNL1        0.0018
     31 C          63.2961   81.8120   11.5290 C.3     1  UNL1        0.0215
@<TRIPOS>BOND
     1    30    31    1
     2    31    29    1
     3    29    25    1
     4    25    26    1
     5    25    27   am
     6    27    28    2
     7    27    24    1
     8    24     1    1
     9     1     2    1
    10     2     3    1
    11     3     4   ar
    12     4     5   ar
    13     5     6    1
    14     5     7   ar
    15     7    20    1
    16    20    21    1
    17     7     8   ar
    18     8    12    1
    19    12    13   ar
    20    13    14   ar
    21    14    15   ar
    22    15    16    1
    23    15    17   ar
    24    17    18   ar
    25    18    19    1
    26     8     9   ar
    27     9    10    1
    28    10    11    2
    29    10     1   am
    30     9     3   ar
    31    18    12   ar
    32    21    22    1
    33    21    23    1
@<TRIPOS>MOLECULE
*****
 31 33 0 0 0
SMALL
GASTEIGER

@<TRIPOS>ATOM
      1 N          63.0116   90.1526   12.1172 N.am    1  UNL1       -0.2620
      2 C          62.0699   90.7778   11.1312 C.3     1  UNL1        0.1401
      3 C          61.4709   89.6806   10.3022 C.ar    1  UNL1        0.0830
      4 N          60.4789   89.6999    9.1773 N.ar    1  UNL1       -0.2524
      5 C          60.0583   88.4158    8.5260 C.ar    1  UNL1        0.0563
      6 C          59.0663   88.4351    7.4011 C.3     1  UNL1        0.0518
      7 C          60.6297   87.1123    8.9997 C.ar    1  UNL1        0.0072
      8 C          61.6218   87.0930   10.1247 C.ar    1  UNL1        0.0048
      9 C          62.0423   88.3771   10.7760 C.ar    1  UNL1        0.0686
     10 C          62.9945   88.6688   11.8977 C.2     1  UNL1        0.2509
     11 O          63.7900   87.6548   12.6651 O.2     1  UNL1       -0.2698
     12 C          62.1932   85.7895   10.5985 C.ar    1  UNL1        0.0106
     13 C          61.8513   85.2731   11.9646 C.ar    1  UNL1        0.0017
     14 C          62.4228   83.9696   12.4383 C.ar    1  UNL1        0.0114
     15 C          63.3361   83.1826   11.5459 C.ar    1  UNL1        0.0585
     16 CL         63.9075   81.8791   12.0197 Cl      1  UNL1       -0.0822
     17 C          63.6780   83.6990   10.1797 C.ar    1  UNL1        0.0228
     18 C          63.1065   85.0025    9.7060 C.ar    1  UNL1        0.0585
     19 CL         63.4484   85.5189    8.3399 Cl      1  UNL1       -0.0822
     20 C          60.2092   85.8282    8.3485 C.3     1  UNL1        0.0934
     21 N          60.6024   85.5431    6.9293 N.3     1  UNL1       -0.3174
     22 H          60.1413   86.2083    6.3086 H       1  UNL1        0.1192
     23 H          60.3194   84.5949    6.6821 H       1  UNL1        0.1192
     24 C          63.8271   90.8828   13.1427 C.3     1  UNL1        0.1798
     25 N          65.7180   92.5688   13.7188 N.am    1  UNL1       -0.2764
     26 C          66.6892   93.6282   13.2891 C.3     1  UNL1        0.1149
     27 C          64.7983   91.9422   12.7131 C.2     1  UNL1        0.2460
     28 O          64.8497   92.3749   11.2777 O.2     1  UNL1       -0.2730
     29 C          65.6666   92.1361   15.1541 C.3     1  UNL1        0.0935
     30 C          68.0761   92.1790   16.1248 C.3     1  UNL1        0.0018
     31 C          66.6617   92.6782   16.1369 C.3     1  UNL1        0.0215
@<TRIPOS>BOND
     1    30    31    1
     2    31    29    1
     3    29    25    1
     4    25    26    1
     5    25    27   am
     6    27    28    2
     7    27    24    1
     8    24     1    1
     9     1     2    1
    10     2     3    1
    11     3     4   ar
    12     4     5   ar
    13     5     6    1
    14     5     7   ar
    15     7    20    1
    16    20    21    1
    17     7     8   ar
    18     8    12    1
    19    12    13   ar
    20    13    14   ar
    21    14    15   ar
    22    15    16    1
    23    15    17   ar
    24    17    18   ar
    25    18    19    1
    26     8     9   ar
    27     9    10    1
    28    10    11    2
    29    10     1   am
    30     9     3   ar
    31    18    12   ar
    32    21    22    1
    33    21    23    1
@<TRIPOS>MOLECULE
*****
 31 33 0 0 0
SMALL
GASTEIGER

@<TRIPOS>ATOM
      1 N          62.0153   90.1295   10.4660 N.am    1  UNL1       -0.2620
      2 C          62.9541   91.2411   10.1016 C.3     1  UNL1        0.1401
      3 C          63.9261   91.4160   11.2306 C.ar    1  UNL1        0.0830
      4 N          65.0753   92.3594   11.4287 N.ar    1  UNL1       -0.2524
      5 C          65.8865   92.2992   12.6890 C.ar    1  UNL1        0.0563
      6 C          67.0357   93.2426   12.8870 C.3     1  UNL1        0.0518
      7 C          65.5484   91.2955   13.7512 C.ar    1  UNL1        0.0072
      8 C          64.3991   90.3520   13.5531 C.ar    1  UNL1        0.0048
      9 C          63.5880   90.4123   12.2929 C.ar    1  UNL1        0.0686
     10 C          62.4071   89.6172   11.8203 C.2     1  UNL1        0.2509
     11 O          61.7359   88.5051   12.5704 O.2     1  UNL1       -0.2698
     12 C          64.0611   89.3484   14.6154 C.ar    1  UNL1        0.0106
     13 C          64.3675   87.8960   14.3997 C.ar    1  UNL1        0.0017
     14 C          64.0294   86.8923   15.4619 C.ar    1  UNL1        0.0114
     15 C          63.3850   87.3410   16.7399 C.ar    1  UNL1        0.0585
     16 CL         63.0469   86.3374   17.8021 Cl      1  UNL1       -0.0822
     17 C          63.0785   88.7935   16.9557 C.ar    1  UNL1        0.0228
     18 C          63.4166   89.7972   15.8934 C.ar    1  UNL1        0.0585
     19 CL         63.1102   91.2496   16.1091 Cl      1  UNL1       -0.0822
     20 C          66.3595   91.2352   15.0115 C.3     1  UNL1        0.0934
     21 N          66.3120   92.3720   15.9890 N.3     1  UNL1       -0.3174
     22 H          66.7201   93.2040   15.5630 H       1  UNL1        0.1192
     23 H          66.8410   92.1238   16.8251 H       1  UNL1        0.1192
     24 C          60.8835   89.6195    9.6240 C.3     1  UNL1        0.1798
     25 N          59.9670   87.7850    8.0289 N.am    1  UNL1       -0.2764
     26 C          59.9776   86.3681    7.5365 C.3     1  UNL1        0.1149
     27 C          60.8941   88.2027    9.1316 C.2     1  UNL1        0.2460
     28 O          61.8319   87.2036    9.7419 O.2     1  UNL1       -0.2730
     29 C          59.0292   88.7840    7.4187 C.3     1  UNL1        0.0935
     30 C          58.5551   90.6364    5.6598 C.3     1  UNL1        0.0018
     31 C          59.4458   89.5592    6.2040 C.3     1  UNL1        0.0215
@<TRIPOS>BOND
     1    30    31    1
     2    31    29    1
     3    29    25    1
     4    25    26    1
     5    25    27   am
     6    27    28    2
     7    27    24    1
     8    24     1    1
     9     1     2    1
    10     2     3    1
    11     3     4   ar
    12     4     5   ar
    13     5     6    1
    14     5     7   ar
    15     7    20    1
    16    20    21    1
    17     7     8   ar
    18     8    12    1
    19    12    13   ar
    20    13    14   ar
    21    14    15   ar
    22    15    16    1
    23    15    17   ar
    24    17    18   ar
    25    18    19    1
    26     8     9   ar
    27     9    10    1
    28    10    11    2
    29    10     1   am
    30     9     3   ar
    31    18    12   ar
    32    21    22    1
    33    21    23    1
@<TRIPOS>MOLECULE
*****
 31 33 0 0 0
SMALL
GASTEIGER

@<TRIPOS>ATOM
      1 N          63.5478   84.3354   14.1142 N.am    1  UNL1       -0.2620
      2 C          64.1958   85.4479   14.8839 C.3     1  UNL1        0.1401
      3 C          63.9578   86.7275   14.1383 C.ar    1  UNL1        0.0830
      4 N          64.3623   88.1440   14.4209 N.ar    1  UNL1       -0.2524
      5 C          63.9718   89.2389   13.4729 C.ar    1  UNL1        0.0563
      6 C          64.3763   90.6554   13.7555 C.3     1  UNL1        0.0518
      7 C          63.1767   88.9173   12.2423 C.ar    1  UNL1        0.0072
      8 C          62.7722   87.5007   11.9597 C.ar    1  UNL1        0.0048
      9 C          63.1627   86.4059   12.9077 C.ar    1  UNL1        0.0686
     10 C          62.9094   84.9275   12.8928 C.2     1  UNL1        0.2509
     11 O          62.1508   84.1736   11.8411 O.2     1  UNL1       -0.2698
     12 C          61.9771   87.1791   10.7290 C.ar    1  UNL1        0.0106
     13 C          62.6398   86.5097    9.5617 C.ar    1  UNL1        0.0017
     14 C          61.8448   86.1881    8.3311 C.ar    1  UNL1        0.0114
     15 C          60.3871   86.5358    8.2678 C.ar    1  UNL1        0.0585
     16 CL         59.5920   86.2142    7.0371 Cl      1  UNL1       -0.0822
     17 C          59.7243   87.2052    9.4352 C.ar    1  UNL1        0.0228
     18 C          60.5193   87.5269   10.6658 C.ar    1  UNL1        0.0585
     19 CL         59.8567   88.1962   11.8331 Cl      1  UNL1       -0.0822
     20 C          62.7862   90.0121   11.2943 C.3     1  UNL1        0.0934
     21 N          61.6812   90.9594   11.6569 N.3     1  UNL1       -0.3174
     22 H          60.7984   90.4505   11.7029 H       1  UNL1        0.1192
     23 H          61.6151   91.6915   10.9497 H       1  UNL1        0.1192
     24 C          63.5398   82.8855   14.4983 C.3     1  UNL1        0.1798
     25 N          62.5516   80.7655   13.3674 N.am    1  UNL1       -0.2764
     26 C          62.6199   79.7079   12.3058 C.3     1  UNL1        0.1149
     27 C          63.6081   81.8279   13.4368 C.2     1  UNL1        0.2460
     28 O          64.7331   81.8329   12.4445 O.2     1  UNL1       -0.2730
     29 C          61.4267   80.7605   14.3596 C.3     1  UNL1        0.0935
     30 C          59.0256   79.7921   14.5767 C.3     1  UNL1        0.0018
     31 C          60.0062   80.6903   13.8827 C.3     1  UNL1        0.0215
@<TRIPOS>BOND
     1    30    31    1
     2    31    29    1
     3    29    25    1
     4    25    26    1
     5    25    27   am
     6    27    28    2
     7    27    24    1
     8    24     1    1
     9     1     2    1
    10     2     3    1
    11     3     4   ar
    12     4     5   ar
    13     5     6    1
    14     5     7   ar
    15     7    20    1
    16    20    21    1
    17     7     8   ar
    18     8    12    1
    19    12    13   ar
    20    13    14   ar
    21    14    15   ar
    22    15    16    1
    23    15    17   ar
    24    17    18   ar
    25    18    19    1
    26     8     9   ar
    27     9    10    1
    28    10    11    2
    29    10     1   am
    30     9     3   ar
    31    18    12   ar
    32    21    22    1
    33    21    23    1
@<TRIPOS>MOLECULE
*****
 31 33 0 0 0
SMALL
GASTEIGER

@<TRIPOS>ATOM
      1 N          63.7194   85.3471   13.4861 N.am    1  UNL1       -0.2620
      2 C          62.8211   85.2838   12.2865 C.3     1  UNL1        0.1401
      3 C          62.5731   86.6871   11.8185 C.ar    1  UNL1        0.0830
      4 N          61.7651   87.2378   10.6810 N.ar    1  UNL1       -0.2524
      5 C          61.7022   88.7192   10.4538 C.ar    1  UNL1        0.0563
      6 C          60.8942   89.2699    9.3163 C.3     1  UNL1        0.0518
      7 C          62.4473   89.6499   11.3641 C.ar    1  UNL1        0.0072
      8 C          63.2553   89.0991   12.5016 C.ar    1  UNL1        0.0048
      9 C          63.3182   87.6178   12.7288 C.ar    1  UNL1        0.0686
     10 C          64.0267   86.7896   13.7594 C.2     1  UNL1        0.2509
     11 O          64.8907   87.3122   14.8686 O.2     1  UNL1       -0.2698
     12 C          64.0005   90.0298   13.4119 C.ar    1  UNL1        0.0106
     13 C          65.2178   90.7510   12.9140 C.ar    1  UNL1        0.0017
     14 C          65.9629   91.6817   13.8243 C.ar    1  UNL1        0.0114
     15 C          65.4907   91.8912   15.2325 C.ar    1  UNL1        0.0585
     16 CL         66.2358   92.8218   16.1428 Cl      1  UNL1       -0.0822
     17 C          64.2733   91.1699   15.7305 C.ar    1  UNL1        0.0228
     18 C          63.5282   90.2392   14.8202 C.ar    1  UNL1        0.0585
     19 CL         62.3109   89.5180   15.3181 Cl      1  UNL1       -0.0822
     20 C          62.3845   91.1312   11.1369 C.3     1  UNL1        0.0934
     21 N          63.1686   91.7525   10.0193 N.3     1  UNL1       -0.3174
     22 H          64.1661   91.6506   10.2063 H       1  UNL1        0.1192
     23 H          62.9351   92.7430    9.9498 H       1  UNL1        0.1192
     24 C          64.2222   84.1739   14.2740 C.3     1  UNL1        0.1798
     25 N          63.3392   81.8400   13.5507 N.am    1  UNL1       -0.2764
     26 C          62.4466   80.6580   13.7882 C.3     1  UNL1        0.1149
     27 C          63.3297   82.9919   14.5114 C.2     1  UNL1        0.2460
     28 O          62.4278   82.9618   15.7096 O.2     1  UNL1       -0.2730
     29 C          64.2411   81.8700   12.3525 C.3     1  UNL1        0.0935
     30 C          64.2059   83.0217   10.0240 C.3     1  UNL1        0.0018
     31 C          63.6570   82.0020   10.9772 C.3     1  UNL1        0.0215
@<TRIPOS>BOND
     1    30    31    1
     2    31    29    1
     3    29    25    1
     4    25    26    1
     5    25    27   am
     6    27    28    2
     7    27    24    1
     8    24     1    1
     9     1     2    1
    10     2     3    1
    11     3     4   ar
    12     4     5   ar
    13     5     6    1
    14     5     7   ar
    15     7    20    1
    16    20    21    1
    17     7     8   ar
    18     8    12    1
    19    12    13   ar
    20    13    14   ar
    21    14    15   ar
    22    15    16    1
    23    15    17   ar
    24    17    18   ar
    25    18    19    1
    26     8     9   ar
    27     9    10    1
    28    10    11    2
    29    10     1   am
    30     9     3   ar
    31    18    12   ar
    32    21    22    1
    33    21    23    1
@<TRIPOS>MOLECULE
*****
 31 33 0 0 0
SMALL
GASTEIGER

@<TRIPOS>ATOM
      1 N          61.4525   90.1389   10.6229 N.am    1  UNL1       -0.2620
      2 C          62.4222   91.1576   10.1014 C.3     1  UNL1        0.1401
      3 C          63.5381   91.2869   11.0955 C.ar    1  UNL1        0.0830
      4 N          64.7730   92.1382   11.1131 N.ar    1  UNL1       -0.2524
      5 C          65.7278   92.0508   12.2666 C.ar    1  UNL1        0.0563
      6 C          66.9627   92.9020   12.2842 C.3     1  UNL1        0.0518
      7 C          65.4478   91.1120   13.4026 C.ar    1  UNL1        0.0072
      8 C          64.2128   90.2607   13.3849 C.ar    1  UNL1        0.0048
      9 C          63.2580   90.3482   12.2314 C.ar    1  UNL1        0.0686
     10 C          61.9691   89.6387   11.9394 C.2     1  UNL1        0.2509
     11 O          61.3120   88.6097   12.8108 O.2     1  UNL1       -0.2698
     12 C          63.9327   89.3220   14.5209 C.ar    1  UNL1        0.0106
     13 C          64.1689   87.8503   14.3533 C.ar    1  UNL1        0.0017
     14 C          63.8889   86.9116   15.4892 C.ar    1  UNL1        0.0114
     15 C          63.3726   87.4446   16.7927 C.ar    1  UNL1        0.0585
     16 CL         63.0925   86.5059   17.9287 Cl      1  UNL1       -0.0822
     17 C          63.1363   88.9164   16.9604 C.ar    1  UNL1        0.0228
     18 C          63.4164   89.8551   15.8245 C.ar    1  UNL1        0.0585
     19 CL         63.1802   91.3269   15.9921 Cl      1  UNL1       -0.0822
     20 C          66.4026   91.0246   14.5561 C.3     1  UNL1        0.0934
     21 N          66.4660   92.1346   15.5629 N.3     1  UNL1       -0.3174
     22 H          66.8172   92.9808   15.1144 H       1  UNL1        0.1192
     23 H          67.0913   91.8684   16.3235 H       1  UNL1        0.1192
     24 C          60.1883   89.6979    9.9468 C.3     1  UNL1        0.1798
     25 N          60.5881   87.3358    8.9417 N.am    1  UNL1       -0.2764
     26 C          60.6524   86.4239    7.7524 C.3     1  UNL1        0.1149
     27 C          60.2525   88.7861    8.7576 C.2     1  UNL1        0.2460
     28 O          59.9811   89.3245    7.3840 O.2     1  UNL1       -0.2730
     29 C          60.8595   86.7973   10.3152 C.3     1  UNL1        0.0935
     30 C          62.2922   85.3370   11.9167 C.3     1  UNL1        0.0018
     31 C          62.0076   85.8584   10.5393 C.3     1  UNL1        0.0215
@<TRIPOS>BOND
     1    30    31    1
     2    31    29    1
     3    29    25    1
     4    25    26    1
     5    25    27   am
     6    27    28    2
     7    27    24    1
     8    24     1    1
     9     1     2    1
    10     2     3    1
    11     3     4   ar
    12     4     5   ar
    13     5     6    1
    14     5     7   ar
    15     7    20    1
    16    20    21    1
    17     7     8   ar
    18     8    12    1
    19    12    13   ar
    20    13    14   ar
    21    14    15   ar
    22    15    16    1
    23    15    17   ar
    24    17    18   ar
    25    18    19    1
    26     8     9   ar
    27     9    10    1
    28    10    11    2
    29    10     1   am
    30     9     3   ar
    31    18    12   ar
    32    21    22    1
    33    21    23    1
@<TRIPOS>MOLECULE
*****
 31 33 0 0 0
SMALL
GASTEIGER

@<TRIPOS>ATOM
      1 N          62.4743   86.5742   10.0362 N.am    1  UNL1       -0.2620
      2 C          62.6153   85.2691    9.3104 C.3     1  UNL1        0.1401
      3 C          62.8100   84.1888   10.3326 C.ar    1  UNL1        0.0830
      4 N          63.0035   82.7070   10.2027 N.ar    1  UNL1       -0.2524
      5 C          63.1763   81.8626   11.4304 C.ar    1  UNL1        0.0563
      6 C          63.3697   80.3809   11.3004 C.3     1  UNL1        0.0518
      7 C          63.1557   82.5001   12.7880 C.ar    1  UNL1        0.0072
      8 C          62.9622   83.9819   12.9180 C.ar    1  UNL1        0.0048
      9 C          62.7894   84.8262   11.6903 C.ar    1  UNL1        0.0686
     10 C          62.5819   86.3005   11.5071 C.2     1  UNL1        0.2509
     11 O          62.4970   87.3217   12.6025 O.2     1  UNL1       -0.2698
     12 C          62.9416   84.6194   14.2756 C.ar    1  UNL1        0.0106
     13 C          61.6500   84.7380   15.0289 C.ar    1  UNL1        0.0017
     14 C          61.6293   85.3755   16.3866 C.ar    1  UNL1        0.0114
     15 C          62.9004   85.8942   16.9910 C.ar    1  UNL1        0.0585
     16 CL         62.8797   86.5317   18.3486 Cl      1  UNL1       -0.0822
     17 C          64.1921   85.7756   16.2377 C.ar    1  UNL1        0.0228
     18 C          64.2127   85.1381   14.8800 C.ar    1  UNL1        0.0585
     19 CL         65.5044   85.0194   14.1267 Cl      1  UNL1       -0.0822
     20 C          63.3285   81.6558   14.0157 C.3     1  UNL1        0.0934
     21 N          62.1248   81.1241   14.7358 N.3     1  UNL1       -0.3174
     22 H          61.5972   81.9003   15.1353 H       1  UNL1        0.1192
     23 H          62.4247   80.4969   15.4822 H       1  UNL1        0.1192
     24 C          62.2629   87.9172    9.4024 C.3     1  UNL1        0.1798
     25 N          61.1188   89.9324   10.5770 N.am    1  UNL1       -0.2764
     26 C          59.8832   90.7233   10.8900 C.3     1  UNL1        0.1149
     27 C          61.0274   88.7080    9.7154 C.2     1  UNL1        0.2460
     28 O          59.7003   88.2745    9.1667 O.2     1  UNL1       -0.2730
     29 C          62.4458   90.3660   11.1257 C.3     1  UNL1        0.0935
     30 C          64.5123   91.9335   10.9747 C.3     1  UNL1        0.0018
     31 C          63.3210   91.2888   10.3304 C.3     1  UNL1        0.0215
@<TRIPOS>BOND
     1    30    31    1
     2    31    29    1
     3    29    25    1
     4    25    26    1
     5    25    27   am
     6    27    28    2
     7    27    24    1
     8    24     1    1
     9     1     2    1
    10     2     3    1
    11     3     4   ar
    12     4     5   ar
    13     5     6    1
    14     5     7   ar
    15     7    20    1
    16    20    21    1
    17     7     8   ar
    18     8    12    1
    19    12    13   ar
    20    13    14   ar
    21    14    15   ar
    22    15    16    1
    23    15    17   ar
    24    17    18   ar
    25    18    19    1
    26     8     9   ar
    27     9    10    1
    28    10    11    2
    29    10     1   am
    30     9     3   ar
    31    18    12   ar
    32    21    22    1
    33    21    23    1
@<TRIPOS>MOLECULE
*****
 31 33 0 0 0
SMALL
GASTEIGER

@<TRIPOS>ATOM
      1 N          58.8718   92.8509   -2.0539 N.am    1  UNL1       -0.2620
      2 C          58.9738   92.3685   -0.6373 C.3     1  UNL1        0.1401
      3 C          60.3641   92.6513   -0.1503 C.ar    1  UNL1        0.0830
      4 N          61.0384   92.3952    1.1649 N.ar    1  UNL1       -0.2524
      5 C          62.4699   92.7964    1.3645 C.ar    1  UNL1        0.0563
      6 C          63.1442   92.5404    2.6797 C.3     1  UNL1        0.0518
      7 C          63.2272   93.4536    0.2488 C.ar    1  UNL1        0.0072
      8 C          62.5528   93.7096   -1.0664 C.ar    1  UNL1        0.0048
      9 C          61.1213   93.3085   -1.2660 C.ar    1  UNL1        0.0686
     10 C          60.1990   93.4318   -2.4424 C.2     1  UNL1        0.2509
     11 O          60.5435   94.0310   -3.7737 O.2     1  UNL1       -0.2698
     12 C          63.3100   94.3668   -2.1821 C.ar    1  UNL1        0.0106
     13 C          63.9814   93.5281   -3.2289 C.ar    1  UNL1        0.0017
     14 C          64.7386   94.1853   -4.3445 C.ar    1  UNL1        0.0114
     15 C          64.8245   95.6812   -4.4134 C.ar    1  UNL1        0.0585
     16 CL         65.5817   96.3385   -5.5291 Cl      1  UNL1       -0.0822
     17 C          64.1532   96.5201   -3.3666 C.ar    1  UNL1        0.0228
     18 C          63.3959   95.8628   -2.2509 C.ar    1  UNL1        0.0585
     19 CL         62.7246   96.7016   -1.2041 Cl      1  UNL1       -0.0822
     20 C          64.6586   93.8548    0.4484 C.3     1  UNL1        0.0934
     21 N          65.7386   92.8140    0.4308 N.3     1  UNL1       -0.3174
     22 H          65.6231   92.1906    1.2298 H       1  UNL1        0.1192
     23 H          66.6501   93.2689    0.4834 H       1  UNL1        0.1192
     24 C          57.6560   92.7671   -2.9285 C.3     1  UNL1        0.1798
     25 N          55.9240   94.6698   -2.5684 N.am    1  UNL1       -0.2764
     26 C          54.5951   95.1362   -2.0521 C.3     1  UNL1        0.1149
     27 C          56.3272   93.2335   -2.4122 C.2     1  UNL1        0.2460
     28 O          55.4014   92.2636   -1.7397 O.2     1  UNL1       -0.2730
     29 C          56.8497   95.6398   -3.2409 C.3     1  UNL1        0.0935
     30 C          57.9641   96.1727   -0.9553 C.3     1  UNL1        0.0018
     31 C          57.8169   96.4435   -2.4232 C.3     1  UNL1        0.0215
@<TRIPOS>BOND
     1    30    31    1
     2    31    29    1
     3    29    25    1
     4    25    26    1
     5    25    27   am
     6    27    28    2
     7    27    24    1
     8    24     1    1
     9     1     2    1
    10     2     3    1
    11     3     4   ar
    12     4     5   ar
    13     5     6    1
    14     5     7   ar
    15     7    20    1
    16    20    21    1
    17     7     8   ar
    18     8    12    1
    19    12    13   ar
    20    13    14   ar
    21    14    15   ar
    22    15    16    1
    23    15    17   ar
    24    17    18   ar
    25    18    19    1
    26     8     9   ar
    27     9    10    1
    28    10    11    2
    29    10     1   am
    30     9     3   ar
    31    18    12   ar
    32    21    22    1
    33    21    23    1
@<TRIPOS>MOLECULE
*****
 31 33 0 0 0
SMALL
GASTEIGER

@<TRIPOS>ATOM
      1 N          62.6848   86.5182   10.0280 N.am    1  UNL1       -0.2620
      2 C          62.7593   85.1933    9.3286 C.3     1  UNL1        0.1401
      3 C          62.8573   84.1221   10.3740 C.ar    1  UNL1        0.0830
      4 N          62.9574   82.6288   10.2745 N.ar    1  UNL1       -0.2524
      5 C          63.0436   81.7982   11.5207 C.ar    1  UNL1        0.0563
      6 C          63.1437   80.3048   11.4212 C.3     1  UNL1        0.0518
      7 C          63.0297   82.4610   12.8662 C.ar    1  UNL1        0.0072
      8 C          62.9296   83.9544   12.9656 C.ar    1  UNL1        0.0048
      9 C          62.8434   84.7849   11.7196 C.ar    1  UNL1        0.0686
     10 C          62.7368   86.2657   11.5057 C.2     1  UNL1        0.2509
     11 O          62.6904   87.3107   12.5808 O.2     1  UNL1       -0.2698
     12 C          62.9157   84.6172   14.3112 C.ar    1  UNL1        0.0106
     13 C          61.6215   84.7873   15.0501 C.ar    1  UNL1        0.0017
     14 C          61.6076   85.4501   16.3957 C.ar    1  UNL1        0.0114
     15 C          62.8879   85.9428   17.0023 C.ar    1  UNL1        0.0585
     16 CL         62.8740   86.6056   18.3478 Cl      1  UNL1       -0.0822
     17 C          64.1822   85.7727   16.2633 C.ar    1  UNL1        0.0228
     18 C          64.1961   85.1099   14.9178 C.ar    1  UNL1        0.0585
     19 CL         65.4903   84.9397   14.1789 Cl      1  UNL1       -0.0822
     20 C          63.1159   81.6305   14.1123 C.3     1  UNL1        0.0934
     21 N          61.8651   81.1017   14.7492 N.3     1  UNL1       -0.3174
     22 H          61.3075   81.8800   15.1010 H       1  UNL1        0.1192
     23 H          62.1121   80.4837   15.5221 H       1  UNL1        0.1192
     24 C          62.5772   87.8599    9.3660 C.3     1  UNL1        0.1798
     25 N          60.4468   89.0085   10.3103 N.am    1  UNL1       -0.2764
     26 C          59.8000   90.1523   11.0339 C.3     1  UNL1        0.1149
     27 C          61.9305   89.0035   10.0896 C.2     1  UNL1        0.2460
     28 O          62.7673   90.1423   10.5926 O.2     1  UNL1       -0.2730
     29 C          59.6099   87.8699    9.8073 C.3     1  UNL1        0.0935
     30 C          59.5634   86.4255    7.6482 C.3     1  UNL1        0.0018
     31 C          59.3298   87.7359    8.3398 C.3     1  UNL1        0.0215
@<TRIPOS>BOND
     1    30    31    1
     2    31    29    1
     3    29    25    1
     4    25    26    1
     5    25    27   am
     6    27    28    2
     7    27    24    1
     8    24     1    1
     9     1     2    1
    10     2     3    1
    11     3     4   ar
    12     4     5   ar
    13     5     6    1
    14     5     7   ar
    15     7    20    1
    16    20    21    1
    17     7     8   ar
    18     8    12    1
    19    12    13   ar
    20    13    14   ar
    21    14    15   ar
    22    15    16    1
    23    15    17   ar
    24    17    18   ar
    25    18    19    1
    26     8     9   ar
    27     9    10    1
    28    10    11    2
    29    10     1   am
    30     9     3   ar
    31    18    12   ar
    32    21    22    1
    33    21    23    1
