@<TRIPOS>MOLECULE
*****
 16 16 0 0 0
SMALL
GASTEIGER

@<TRIPOS>ATOM
      1 C          63.3529   83.0209   13.3703 C.3     1  UNL1        0.0260
      2 C          63.2790   84.4945   13.1000 C.2     1  UNL1       -0.0478
      3 C          62.5209   84.6510   11.8152 C.2     1  UNL1       -0.0343
      4 C          61.9618   85.5881   10.7860 C.3     1  UNL1        0.0294
      5 C          61.7793   87.0084   10.3392 C.3     1  UNL1        0.0227
      6 C          61.1721   87.8302    9.2410 C.3     1  UNL1        0.0047
      7 C          61.1301   86.0935    9.3433 C.3     1  UNL1        0.0047
      8 C          62.0312   88.4608   10.6166 C.2     1  UNL1       -0.0232
      9 C          62.6378   89.4843   11.5302 C.2     1  UNL1        0.0371
     10 C          63.4062   89.7539   12.7899 C.2     1  UNL1        0.1911
     11 O          63.5518   91.2437   12.8854 O.2     1  UNL1       -0.2869
     12 C          64.0926   89.1840   13.9957 C.2     1  UNL1        0.0128
     13 C          64.6249   90.3527   14.7707 C.3     1  UNL1        0.0340
     14 C          64.4790   87.9556   14.7649 C.2     1  UNL1       -0.0269
     15 C          64.4428   86.4585   14.8531 C.3     1  UNL1        0.0301
     16 C          63.9954   85.1684   14.2325 C.3     1  UNL1        0.0264
@<TRIPOS>BOND
     1     1     2    1
     2     2     3    2
     3     3     4    1
     4     4     5    1
     5     5     6    1
     6     5     7    1
     7     5     8    1
     8     8     9    2
     9     9    10    1
    10    10    11    2
    11    10    12    1
    12    12    13    1
    13    12    14    2
    14    14    15    1
    15    15    16    1
    16    16     2    1
@<TRIPOS>MOLECULE
*****
 16 16 0 0 0
SMALL
GASTEIGER

@<TRIPOS>ATOM
      1 C          64.2841   90.6637   14.1771 C.3     1  UNL1        0.0260
      2 C          63.9063   89.3164   13.6366 C.2     1  UNL1       -0.0478
      3 C          63.1866   89.5661   12.3444 C.2     1  UNL1       -0.0343
      4 C          62.4826   88.9774   11.1580 C.3     1  UNL1        0.0294
      5 C          62.0177   87.7371   10.4539 C.3     1  UNL1        0.0227
      6 C          61.2944   87.2821    9.2211 C.3     1  UNL1        0.0047
      7 C          61.6227   88.9375    9.6456 C.3     1  UNL1        0.0047
      8 C          61.9396   86.2392   10.4557 C.2     1  UNL1       -0.0232
      9 C          62.2730   84.9591   11.1629 C.2     1  UNL1        0.0371
     10 C          62.9122   84.3032   12.3509 C.2     1  UNL1        0.1911
     11 O          62.7298   82.8258   12.1670 O.2     1  UNL1       -0.2869
     12 C          63.6541   84.4799   13.6426 C.2     1  UNL1        0.0128
     13 C          63.8897   83.1020   14.1864 C.3     1  UNL1        0.0340
     14 C          64.2632   85.4330   14.6277 C.2     1  UNL1       -0.0269
     15 C          64.5462   86.8599   14.9937 C.3     1  UNL1        0.0301
     16 C          64.4131   88.3076   14.6242 C.3     1  UNL1        0.0264
@<TRIPOS>BOND
     1     1     2    1
     2     2     3    2
     3     3     4    1
     4     4     5    1
     5     5     6    1
     6     5     7    1
     7     5     8    1
     8     8     9    2
     9     9    10    1
    10    10    11    2
    11    10    12    1
    12    12    13    1
    13    12    14    2
    14    14    15    1
    15    15    16    1
    16    16     2    1
@<TRIPOS>MOLECULE
*****
 16 16 0 0 0
SMALL
GASTEIGER

@<TRIPOS>ATOM
      1 C          64.5203   84.3494   14.9637 C.3     1  UNL1        0.0260
      2 C          63.9771   85.3770   14.0155 C.2     1  UNL1       -0.0478
      3 C          64.3853   86.7132   14.5611 C.2     1  UNL1       -0.0343
      4 C          64.3578   88.2042   14.3993 C.3     1  UNL1        0.0294
      5 C          63.9034   89.3766   13.5812 C.3     1  UNL1        0.0227
      6 C          63.9519   90.8752   13.5400 C.3     1  UNL1        0.0047
      7 C          64.6723   89.8754   14.7687 C.3     1  UNL1        0.0047
      8 C          63.1663   89.8580   12.3668 C.2     1  UNL1       -0.0232
      9 C          62.3805   89.4957   11.1415 C.2     1  UNL1        0.0371
     10 C          61.7955   88.4048   10.2944 C.2     1  UNL1        0.1911
     11 O          61.1095   89.0833    9.1459 O.2     1  UNL1       -0.2869
     12 C          61.5971   86.9314   10.0944 C.2     1  UNL1        0.0128
     13 C          60.7993   86.7798    8.8333 C.3     1  UNL1        0.0340
     14 C          61.8482   85.5436   10.6050 C.2     1  UNL1       -0.0269
     15 C          62.4692   84.6818   11.6642 C.3     1  UNL1        0.0301
     16 C          63.2628   84.6197   12.9356 C.3     1  UNL1        0.0264
@<TRIPOS>BOND
     1     1     2    1
     2     2     3    2
     3     3     4    1
     4     4     5    1
     5     5     6    1
     6     5     7    1
     7     5     8    1
     8     8     9    2
     9     9    10    1
    10    10    11    2
    11    10    12    1
    12    12    13    1
    13    12    14    2
    14    14    15    1
    15    15    16    1
    16    16     2    1
@<TRIPOS>MOLECULE
*****
 16 16 0 0 0
SMALL
GASTEIGER

@<TRIPOS>ATOM
      1 C          61.0414   89.1789    9.2969 C.3     1  UNL1        0.0260
      2 C          61.7451   88.4879   10.4271 C.2     1  UNL1       -0.0478
      3 C          62.3626   89.5685   11.2642 C.2     1  UNL1       -0.0343
      4 C          63.1805   89.9168   12.4724 C.3     1  UNL1        0.0294
      5 C          63.9392   89.4219   13.6681 C.3     1  UNL1        0.0227
      6 C          64.7410   89.9071   14.8393 C.3     1  UNL1        0.0047
      7 C          64.0051   90.9201   13.6307 C.3     1  UNL1        0.0047
      8 C          64.3978   88.2413   14.4716 C.2     1  UNL1       -0.0232
      9 C          64.4106   86.7494   14.6278 C.2     1  UNL1        0.0371
     10 C          63.9737   85.4202   14.0871 C.2     1  UNL1        0.1911
     11 O          64.5258   84.3827   15.0192 O.2     1  UNL1       -0.2869
     12 C          63.2257   84.6756   13.0213 C.2     1  UNL1        0.0128
     13 C          63.3563   83.2186   13.3528 C.3     1  UNL1        0.0340
     14 C          62.4042   84.7520   11.7686 C.2     1  UNL1       -0.0269
     15 C          61.7698   85.6252   10.7268 C.3     1  UNL1        0.0301
     16 C          61.5241   87.0178   10.2267 C.3     1  UNL1        0.0264
@<TRIPOS>BOND
     1     1     2    1
     2     2     3    2
     3     3     4    1
     4     4     5    1
     5     5     6    1
     6     5     7    1
     7     5     8    1
     8     8     9    2
     9     9    10    1
    10    10    11    2
    11    10    12    1
    12    12    13    1
    13    12    14    2
    14    14    15    1
    15    15    16    1
    16    16     2    1
@<TRIPOS>MOLECULE
*****
 16 16 0 0 0
SMALL
GASTEIGER

@<TRIPOS>ATOM
      1 C          61.2660   85.9778    8.6529 C.3     1  UNL1        0.0260
      2 C          61.9285   86.5001    9.8931 C.2     1  UNL1       -0.0478
      3 C          62.2554   85.3019   10.7342 C.2     1  UNL1       -0.0343
      4 C          62.8517   84.7784   12.0071 C.3     1  UNL1        0.0294
      5 C          63.5283   85.0958   13.3078 C.3     1  UNL1        0.0227
      6 C          64.0912   84.4415   14.5345 C.3     1  UNL1        0.0047
      7 C          63.3546   83.6101   13.1949 C.3     1  UNL1        0.0047
      8 C          64.0701   86.1534   14.2231 C.2     1  UNL1       -0.0232
      9 C          64.3053   87.6154   14.4626 C.2     1  UNL1        0.0371
     10 C          64.1592   89.0176   13.9502 C.2     1  UNL1        0.1911
     11 O          64.7536   89.9137   14.9959 O.2     1  UNL1       -0.2869
     12 C          63.6781   89.9148   12.8485 C.2     1  UNL1        0.0128
     13 C          64.0014   91.3165   13.2735 C.3     1  UNL1        0.0340
     14 C          63.0148   90.0221   11.5075 C.2     1  UNL1       -0.0269
     15 C          62.3798   89.3055   10.3527 C.3     1  UNL1        0.0301
     16 C          61.9749   87.9926    9.7509 C.3     1  UNL1        0.0264
@<TRIPOS>BOND
     1     1     2    1
     2     2     3    2
     3     3     4    1
     4     4     5    1
     5     5     6    1
     6     5     7    1
     7     5     8    1
     8     8     9    2
     9     9    10    1
    10    10    11    2
    11    10    12    1
    12    12    13    1
    13    12    14    2
    14    14    15    1
    15    15    16    1
    16    16     2    1
@<TRIPOS>MOLECULE
*****
 16 16 0 0 0
SMALL
GASTEIGER

@<TRIPOS>ATOM
      1 C          64.8928   90.7571   14.7649 C.3     1  UNL1        0.0260
      2 C          64.2309   89.7109   13.9181 C.2     1  UNL1       -0.0478
      3 C          64.5370   88.3908   14.5611 C.2     1  UNL1       -0.0343
      4 C          64.3730   86.9003   14.5229 C.3     1  UNL1        0.0294
      5 C          63.7909   85.7125   13.8154 C.3     1  UNL1        0.0227
      6 C          63.7057   84.2171   13.8960 C.3     1  UNL1        0.0047
      7 C          64.5507   85.2421   15.0202 C.3     1  UNL1        0.0047
      8 C          62.9754   85.2048   12.6634 C.2     1  UNL1       -0.0232
      9 C          62.1855   85.5381   11.4325 C.2     1  UNL1        0.0371
     10 C          61.6720   86.6068   10.5137 C.2     1  UNL1        0.1911
     11 O          60.8922   85.9040    9.4423 O.2     1  UNL1       -0.2869
     12 C          61.5979   88.0714   10.1985 C.2     1  UNL1        0.0128
     13 C          60.7764   88.1939    8.9495 C.3     1  UNL1        0.0340
     14 C          61.9868   89.4670   10.5871 C.2     1  UNL1       -0.0269
     15 C          62.7151   90.3506   11.5561 C.3     1  UNL1        0.0301
     16 C          63.5517   90.4414   12.7979 C.3     1  UNL1        0.0264
@<TRIPOS>BOND
     1     1     2    1
     2     2     3    2
     3     3     4    1
     4     4     5    1
     5     5     6    1
     6     5     7    1
     7     5     8    1
     8     8     9    2
     9     9    10    1
    10    10    11    2
    11    10    12    1
    12    12    13    1
    13    12    14    2
    14    14    15    1
    15    15    16    1
    16    16     2    1
@<TRIPOS>MOLECULE
*****
 16 16 0 0 0
SMALL
GASTEIGER

@<TRIPOS>ATOM
      1 C          61.2060   87.0578    8.5689 C.3     1  UNL1        0.0260
      2 C          61.8851   87.0190    9.9058 C.2     1  UNL1       -0.0478
      3 C          62.1796   88.4435   10.2717 C.2     1  UNL1       -0.0343
      4 C          62.7632   89.3939   11.2747 C.3     1  UNL1        0.0294
      5 C          63.4508   89.5685   12.5964 C.3     1  UNL1        0.0227
      6 C          63.9972   90.6245   13.5109 C.3     1  UNL1        0.0047
      7 C          63.2351   90.9161   11.9739 C.3     1  UNL1        0.0047
      8 C          64.0239   88.9117   13.8171 C.2     1  UNL1       -0.0232
      9 C          64.3007   87.6321   14.5493 C.2     1  UNL1        0.0371
     10 C          64.1932   86.1360   14.5605 C.2     1  UNL1        0.1911
     11 O          64.8145   85.6773   15.8463 O.2     1  UNL1       -0.2869
     12 C          63.7356   84.8984   13.8471 C.2     1  UNL1        0.0128
     13 C          64.0991   83.7423   14.7310 C.3     1  UNL1        0.0340
     14 C          63.0732   84.3122   12.6357 C.2     1  UNL1       -0.0269
     15 C          62.4162   84.5635   11.3108 C.3     1  UNL1        0.0301
     16 C          61.9733   85.5726   10.2931 C.3     1  UNL1        0.0264
@<TRIPOS>BOND
     1     1     2    1
     2     2     3    2
     3     3     4    1
     4     4     5    1
     5     5     6    1
     6     5     7    1
     7     5     8    1
     8     8     9    2
     9     9    10    1
    10    10    11    2
    11    10    12    1
    12    12    13    1
    13    12    14    2
    14    14    15    1
    15    15    16    1
    16    16     2    1
@<TRIPOS>MOLECULE
*****
 16 16 0 0 0
SMALL
GASTEIGER

@<TRIPOS>ATOM
      1 C          61.8852   89.4827    9.7125 C.3     1  UNL1        0.0260
      2 C          62.4205   88.2704   10.4152 C.2     1  UNL1       -0.0478
      3 C          62.8484   88.7267   11.7785 C.2     1  UNL1       -0.0343
      4 C          63.4420   88.3551   13.1050 C.3     1  UNL1        0.0294
      5 C          64.0130   87.2734   13.9735 C.3     1  UNL1        0.0227
      6 C          64.5913   87.0387   15.3374 C.3     1  UNL1        0.0047
      7 C          64.0243   88.5681   14.7310 C.3     1  UNL1        0.0047
      8 C          64.3799   85.8253   14.1081 C.2     1  UNL1       -0.0232
      9 C          64.4265   84.4703   13.4662 C.2     1  UNL1        0.0371
     10 C          64.1378   83.6388   12.2517 C.2     1  UNL1        0.1911
     11 O          64.5700   82.2414   12.5837 O.2     1  UNL1       -0.2869
     12 C          63.6055   83.5947   10.8499 C.2     1  UNL1        0.0128
     13 C          63.7378   82.1724   10.3922 C.3     1  UNL1        0.0340
     14 C          62.9986   84.3520    9.7062 C.2     1  UNL1       -0.0269
     15 C          62.5098   85.6704    9.1835 C.3     1  UNL1        0.0301
     16 C          62.2943   87.1311    9.4478 C.3     1  UNL1        0.0264
@<TRIPOS>BOND
     1     1     2    1
     2     2     3    2
     3     3     4    1
     4     4     5    1
     5     5     6    1
     6     5     7    1
     7     5     8    1
     8     8     9    2
     9     9    10    1
    10    10    11    2
    11    10    12    1
    12    12    13    1
    13    12    14    2
    14    14    15    1
    15    15    16    1
    16    16     2    1
@<TRIPOS>MOLECULE
*****
 16 16 0 0 0
SMALL
GASTEIGER

@<TRIPOS>ATOM
      1 C          63.7504   82.2625   10.3665 C.3     1  UNL1        0.0260
      2 C          63.5994   83.6821   10.8269 C.2     1  UNL1       -0.0478
      3 C          64.1027   83.7240   12.2393 C.2     1  UNL1       -0.0343
      4 C          64.3612   84.5525   13.4627 C.3     1  UNL1        0.0294
      5 C          64.2928   85.9046   14.1087 C.3     1  UNL1        0.0227
      6 C          64.6003   86.6142   15.3940 C.3     1  UNL1        0.0047
      7 C          64.8676   84.9224   15.0860 C.3     1  UNL1        0.0047
      8 C          63.9192   87.3509   13.9722 C.2     1  UNL1       -0.0232
      9 C          63.3590   88.4323   13.0965 C.2     1  UNL1        0.0371
     10 C          62.7902   88.8054   11.7596 C.2     1  UNL1        0.1911
     11 O          62.4851   90.2726   11.8247 O.2     1  UNL1       -0.2869
     12 C          62.3932   88.3518   10.3860 C.2     1  UNL1        0.0128
     13 C          61.8645   89.5634    9.6772 C.3     1  UNL1        0.0340
     14 C          62.2942   87.2155    9.4119 C.2     1  UNL1       -0.0269
     15 C          62.5246   85.7572    9.1464 C.3     1  UNL1        0.0301
     16 C          63.0111   84.4400    9.6739 C.3     1  UNL1        0.0264
@<TRIPOS>BOND
     1     1     2    1
     2     2     3    2
     3     3     4    1
     4     4     5    1
     5     5     6    1
     6     5     7    1
     7     5     8    1
     8     8     9    2
     9     9    10    1
    10    10    11    2
    11    10    12    1
    12    12    13    1
    13    12    14    2
    14    14    15    1
    15    15    16    1
    16    16     2    1
