@<TRIPOS>MOLECULE
*****
 29 32 0 0 0
SMALL
GASTEIGER

@<TRIPOS>ATOM
      1 C          64.1181   88.8789   14.1330 C.ar    1  UNL1        0.0542
      2 C          63.4122   88.5362   12.8547 C.ar    1  UNL1        0.0150
      3 C          63.1837   87.1003   12.4858 C.ar    1  UNL1        0.0033
      4 C          63.6612   86.0072   13.3951 C.ar    1  UNL1        0.0239
      5 C          64.3672   86.3500   14.6734 C.ar    1  UNL1        0.0033
      6 C          64.5957   87.7858   15.0423 C.ar    1  UNL1        0.0150
      7 C          63.4328   84.5713   13.0262 C.ar    1  UNL1        0.1107
      8 N          63.5983   83.9750   11.6599 N.ar    1  UNL1       -0.2383
      9 C          63.2665   82.5148   11.7481 C.ar    1  UNL1        0.0878
     10 C          63.2540   81.4244   10.7181 C.ar    1  UNL1        0.0196
     11 C          62.8708   80.0279   11.1091 C.ar    1  UNL1        0.0016
     12 C          62.5002   79.7218   12.5300 C.ar    1  UNL1        0.0006
     13 C          62.5127   80.8122   13.5599 C.ar    1  UNL1        0.0080
     14 C          62.8959   82.2087   13.1690 C.ar    1  UNL1        0.0485
     15 S          62.9986   83.4797   13.9589 S.2     1  UNL1       -0.0665
     16 C          63.7140   90.8813   15.7384 C.2     1  UNL1        0.2455
     17 O          62.8530   90.0118   16.6060 O.2     1  UNL1       -0.2730
     18 N          64.3466   90.3148   14.5019 N.am    1  UNL1       -0.2532
     19 N          64.7228   92.6593   17.3419 N.3     1  UNL1       -0.3135
     20 C          63.9425   92.3171   16.1073 C.3     1  UNL1        0.1521
     21 H          64.7799   93.6731   17.4379 H       1  UNL1        0.1193
     22 H          65.6631   92.2711   17.2683 H       1  UNL1        0.1193
     23 C          65.2076   91.1842   13.6343 C.3     1  UNL1        0.1263
     24 C          66.3357   91.9655   14.2401 C.ar    1  UNL1        0.0172
     25 C          67.3337   91.2785   15.1245 C.ar    1  UNL1        0.0005
     26 C          68.4619   92.0598   15.7303 C.ar    1  UNL1        0.0204
     27 C          68.5920   93.5280   15.4516 C.ar    1  UNL1        0.0989
     28 N          67.5940   94.2149   14.5672 N.ar    1  UNL1       -0.2426
     29 C          66.4658   93.4336   13.9615 C.ar    1  UNL1        0.0962
@<TRIPOS>BOND
     1    19    20    1
     2    20    16    1
     3    16    17    2
     4    16    18   am
     5    18    23    1
     6    23    24    1
     7    24    25   ar
     8    25    26   ar
     9    26    27   ar
    10    27    28   ar
    11    28    29   ar
    12    18     1    1
    13     1     2   ar
    14     2     3   ar
    15     3     4   ar
    16     4     7    1
    17     7     8   ar
    18     8     9   ar
    19     9    10   ar
    20    10    11   ar
    21    11    12   ar
    22    12    13   ar
    23    13    14   ar
    24    14    15   ar
    25     4     5   ar
    26     5     6   ar
    27    29    24   ar
    28     6     1   ar
    29    15     7   ar
    30    14     9   ar
    31    19    21    1
    32    19    22    1
@<TRIPOS>MOLECULE
*****
 29 32 0 0 0
SMALL
GASTEIGER

@<TRIPOS>ATOM
      1 C          65.0336   92.1842   12.3646 C.ar    1  UNL1        0.0542
      2 C          64.8474   92.3522   10.8858 C.ar    1  UNL1        0.0150
      3 C          63.9135   91.4461   10.1397 C.ar    1  UNL1        0.0033
      4 C          63.1657   90.3719   10.8724 C.ar    1  UNL1        0.0239
      5 C          63.3519   90.2039   12.3512 C.ar    1  UNL1        0.0033
      6 C          64.2858   91.1100   13.0974 C.ar    1  UNL1        0.0150
      7 C          62.2318   89.4658   10.1263 C.ar    1  UNL1        0.1107
      8 N          61.0177   89.8922    9.3555 N.ar    1  UNL1       -0.2383
      9 C          60.3835   88.6641    8.7728 C.ar    1  UNL1        0.0878
     10 C          59.1636   88.4722    7.9214 C.ar    1  UNL1        0.0196
     11 C          58.7659   87.0947    7.4805 C.ar    1  UNL1        0.0016
     12 C          59.5881   85.9092    7.8911 C.ar    1  UNL1        0.0006
     13 C          60.8079   86.1012    8.7426 C.ar    1  UNL1        0.0080
     14 C          61.2056   87.4786    9.1834 C.ar    1  UNL1        0.0485
     15 S          62.3479   87.9741   10.0199 S.2     1  UNL1       -0.0665
     16 C          66.7288   92.5722   14.2948 C.2     1  UNL1        0.2455
     17 O          66.5562   91.1480   14.7327 O.2     1  UNL1       -0.2730
     18 N          65.9675   93.0903   13.1107 N.am    1  UNL1       -0.2532
     19 N          69.1307   93.1722   15.0831 N.3     1  UNL1       -0.3135
     20 C          67.6628   93.4784   15.0409 C.3     1  UNL1        0.1521
     21 H          69.6115   93.8869   15.6294 H       1  UNL1        0.1193
     22 H          69.5033   93.1620   14.1337 H       1  UNL1        0.1193
     23 C          66.1402   94.5145   12.6728 C.3     1  UNL1        0.1263
     24 C          66.4611   94.8252   11.2409 C.ar    1  UNL1        0.0172
     25 C          67.4855   94.0104   10.5081 C.ar    1  UNL1        0.0005
     26 C          67.8065   94.3212    9.0761 C.ar    1  UNL1        0.0204
     27 C          67.1031   95.4467    8.3770 C.ar    1  UNL1        0.0989
     28 N          66.0788   96.2614    9.1099 N.ar    1  UNL1       -0.2426
     29 C          65.7579   95.9506   10.5418 C.ar    1  UNL1        0.0962
@<TRIPOS>BOND
     1    19    20    1
     2    20    16    1
     3    16    17    2
     4    16    18   am
     5    18    23    1
     6    23    24    1
     7    24    25   ar
     8    25    26   ar
     9    26    27   ar
    10    27    28   ar
    11    28    29   ar
    12    18     1    1
    13     1     2   ar
    14     2     3   ar
    15     3     4   ar
    16     4     7    1
    17     7     8   ar
    18     8     9   ar
    19     9    10   ar
    20    10    11   ar
    21    11    12   ar
    22    12    13   ar
    23    13    14   ar
    24    14    15   ar
    25     4     5   ar
    26     5     6   ar
    27    29    24   ar
    28     6     1   ar
    29    15     7   ar
    30    14     9   ar
    31    19    21    1
    32    19    22    1
@<TRIPOS>MOLECULE
*****
 29 32 0 0 0
SMALL
GASTEIGER

@<TRIPOS>ATOM
      1 C          64.3572   88.6994   14.4268 C.ar    1  UNL1        0.0542
      2 C          63.6619   88.4297   13.1253 C.ar    1  UNL1        0.0150
      3 C          63.3891   87.0177   12.6993 C.ar    1  UNL1        0.0033
      4 C          63.8116   85.8752   13.5746 C.ar    1  UNL1        0.0239
      5 C          64.5069   86.1448   14.8760 C.ar    1  UNL1        0.0033
      6 C          64.7797   87.5569   15.3021 C.ar    1  UNL1        0.0150
      7 C          63.5387   84.4631   13.1485 C.ar    1  UNL1        0.1107
      8 N          63.1118   83.3386   14.0447 N.ar    1  UNL1       -0.2383
      9 C          62.9541   82.1081   13.2015 C.ar    1  UNL1        0.0878
     10 C          62.5531   80.7032   13.5412 C.ar    1  UNL1        0.0196
     11 C          62.4816   79.6623   12.4635 C.ar    1  UNL1        0.0016
     12 C          62.8110   80.0264   11.0461 C.ar    1  UNL1        0.0006
     13 C          63.2120   81.4313   10.7064 C.ar    1  UNL1        0.0080
     14 C          63.2836   82.4721   11.7841 C.ar    1  UNL1        0.0485
     15 S          63.6448   83.9276   11.7514 S.2     1  UNL1       -0.0665
     16 C          63.6929   90.8043   15.7971 C.2     1  UNL1        0.2455
     17 O          62.4828   90.0851   16.3153 O.2     1  UNL1       -0.2730
     18 N          64.6301   90.1115   14.8529 N.am    1  UNL1       -0.2532
     19 N          64.9427   92.4910   17.3279 N.3     1  UNL1       -0.3135
     20 C          63.9657   92.2164   16.2232 C.3     1  UNL1        0.1521
     21 H          65.0045   93.4970   17.4848 H       1  UNL1        0.1193
     22 H          65.8606   92.1305   17.0674 H       1  UNL1        0.1193
     23 C          65.8401   90.8307   14.3348 C.3     1  UNL1        0.1263
     24 C          65.7280   91.7138   13.1275 C.ar    1  UNL1        0.0172
     25 C          64.6030   91.5158   12.1552 C.ar    1  UNL1        0.0005
     26 C          64.4909   92.3989   10.9480 C.ar    1  UNL1        0.0204
     27 C          65.5037   93.4801   10.7130 C.ar    1  UNL1        0.0989
     28 N          66.6286   93.6781   11.6852 N.ar    1  UNL1       -0.2426
     29 C          66.7408   92.7950   12.8925 C.ar    1  UNL1        0.0962
@<TRIPOS>BOND
     1    19    20    1
     2    20    16    1
     3    16    17    2
     4    16    18   am
     5    18    23    1
     6    23    24    1
     7    24    25   ar
     8    25    26   ar
     9    26    27   ar
    10    27    28   ar
    11    28    29   ar
    12    18     1    1
    13     1     2   ar
    14     2     3   ar
    15     3     4   ar
    16     4     7    1
    17     7     8   ar
    18     8     9   ar
    19     9    10   ar
    20    10    11   ar
    21    11    12   ar
    22    12    13   ar
    23    13    14   ar
    24    14    15   ar
    25     4     5   ar
    26     5     6   ar
    27    29    24   ar
    28     6     1   ar
    29    15     7   ar
    30    14     9   ar
    31    19    21    1
    32    19    22    1
@<TRIPOS>MOLECULE
*****
 29 32 0 0 0
SMALL
GASTEIGER

@<TRIPOS>ATOM
      1 C          64.5848   90.9008   13.4791 C.ar    1  UNL1        0.0542
      2 C          64.0487   91.5878   12.2582 C.ar    1  UNL1        0.0150
      3 C          63.2136   90.8240   11.2736 C.ar    1  UNL1        0.0033
      4 C          62.9146   89.3733   11.5100 C.ar    1  UNL1        0.0239
      5 C          63.4507   88.6863   12.7309 C.ar    1  UNL1        0.0033
      6 C          64.2858   89.4500   13.7154 C.ar    1  UNL1        0.0150
      7 C          62.0795   88.6095   10.5254 C.ar    1  UNL1        0.1107
      8 N          62.4572   87.3171    9.8644 N.ar    1  UNL1       -0.2383
      9 C          61.3312   86.9129    8.9595 C.ar    1  UNL1        0.0878
     10 C          61.1448   85.7302    8.0560 C.ar    1  UNL1        0.0196
     11 C          59.8849   85.5901    7.2542 C.ar    1  UNL1        0.0016
     12 C          58.8114   86.6328    7.3559 C.ar    1  UNL1        0.0006
     13 C          58.9978   87.8155    8.2594 C.ar    1  UNL1        0.0080
     14 C          60.2577   87.9556    9.0612 C.ar    1  UNL1        0.0485
     15 S          60.7202   89.0042   10.0290 S.2     1  UNL1       -0.0665
     16 C          64.9056   91.9115   15.8509 C.2     1  UNL1        0.2455
     17 O          63.5561   91.3948   16.2536 O.2     1  UNL1       -0.2730
     18 N          65.4198   91.6645   14.4636 N.am    1  UNL1       -0.2532
     19 N          66.9641   93.4088   16.3714 N.3     1  UNL1       -0.3135
     20 C          65.7406   92.6753   16.8354 C.3     1  UNL1        0.1521
     21 H          67.4067   93.8690   17.1668 H       1  UNL1        0.1193
     22 H          66.6986   94.1085   15.6784 H       1  UNL1        0.1193
     23 C          66.7692   92.1813   14.0610 C.3     1  UNL1        0.1263
     24 C          66.9782   92.7401   12.6847 C.ar    1  UNL1        0.0172
     25 C          67.6594   91.9130   11.6349 C.ar    1  UNL1        0.0005
     26 C          67.8684   92.4718   10.2587 C.ar    1  UNL1        0.0204
     27 C          67.3963   93.8577    9.9322 C.ar    1  UNL1        0.0989
     28 N          66.7152   94.6847   10.9820 N.ar    1  UNL1       -0.2426
     29 C          66.5061   94.1259   12.3582 C.ar    1  UNL1        0.0962
@<TRIPOS>BOND
     1    19    20    1
     2    20    16    1
     3    16    17    2
     4    16    18   am
     5    18    23    1
     6    23    24    1
     7    24    25   ar
     8    25    26   ar
     9    26    27   ar
    10    27    28   ar
    11    28    29   ar
    12    18     1    1
    13     1     2   ar
    14     2     3   ar
    15     3     4   ar
    16     4     7    1
    17     7     8   ar
    18     8     9   ar
    19     9    10   ar
    20    10    11   ar
    21    11    12   ar
    22    12    13   ar
    23    13    14   ar
    24    14    15   ar
    25     4     5   ar
    26     5     6   ar
    27    29    24   ar
    28     6     1   ar
    29    15     7   ar
    30    14     9   ar
    31    19    21    1
    32    19    22    1
@<TRIPOS>MOLECULE
*****
 29 32 0 0 0
SMALL
GASTEIGER

@<TRIPOS>ATOM
      1 C          62.2849   88.6950   10.5865 C.ar    1  UNL1        0.0542
      2 C          62.7436   90.0431   10.1153 C.ar    1  UNL1        0.0150
      3 C          63.6724   90.8586   10.9652 C.ar    1  UNL1        0.0033
      4 C          64.1426   90.3259   12.2862 C.ar    1  UNL1        0.0239
      5 C          63.6839   88.9777   12.7574 C.ar    1  UNL1        0.0033
      6 C          62.7550   88.1623   11.9075 C.ar    1  UNL1        0.0150
      7 C          65.0714   91.1413   13.1361 C.ar    1  UNL1        0.1107
      8 N          65.7287   90.6903   14.4067 N.ar    1  UNL1       -0.2383
      9 C          66.5696   91.8212   14.9205 C.ar    1  UNL1        0.0878
     10 C          67.4428   91.9523   16.1330 C.ar    1  UNL1        0.0196
     11 C          68.1784   93.2335   16.3924 C.ar    1  UNL1        0.0016
     12 C          68.0408   94.3836   15.4393 C.ar    1  UNL1        0.0006
     13 C          67.1676   94.2525   14.2268 C.ar    1  UNL1        0.0080
     14 C          66.4320   92.9712   13.9673 C.ar    1  UNL1        0.0485
     15 S          65.5061   92.5511   12.8645 S.2     1  UNL1       -0.0665
     16 C          59.9070   88.2541    9.6372 C.2     1  UNL1        0.2455
     17 O          59.3867   89.4442   10.3876 O.2     1  UNL1       -0.2730
     18 N          61.3560   87.8795    9.7366 N.am    1  UNL1       -0.2532
     19 N          58.6498   87.8856    7.3936 N.3     1  UNL1       -0.3135
     20 C          58.9781   87.4387    8.7873 C.3     1  UNL1        0.1521
     21 H          58.0093   87.2178    6.9644 H       1  UNL1        0.1193
     22 H          59.5065   87.9374    6.8424 H       1  UNL1        0.1193
     23 C          61.8762   86.6895    8.9862 C.3     1  UNL1        0.1263
     24 C          62.4083   85.5041    9.7357 C.ar    1  UNL1        0.0172
     25 C          63.4198   84.6024    9.0924 C.ar    1  UNL1        0.0005
     26 C          63.9520   83.4170    9.8419 C.ar    1  UNL1        0.0204
     27 C          63.4726   83.1334   11.2347 C.ar    1  UNL1        0.0989
     28 N          62.4611   84.0351   11.8780 N.ar    1  UNL1       -0.2426
     29 C          61.9290   85.2205   11.1285 C.ar    1  UNL1        0.0962
@<TRIPOS>BOND
     1    19    20    1
     2    20    16    1
     3    16    17    2
     4    16    18   am
     5    18    23    1
     6    23    24    1
     7    24    25   ar
     8    25    26   ar
     9    26    27   ar
    10    27    28   ar
    11    28    29   ar
    12    18     1    1
    13     1     2   ar
    14     2     3   ar
    15     3     4   ar
    16     4     7    1
    17     7     8   ar
    18     8     9   ar
    19     9    10   ar
    20    10    11   ar
    21    11    12   ar
    22    12    13   ar
    23    13    14   ar
    24    14    15   ar
    25     4     5   ar
    26     5     6   ar
    27    29    24   ar
    28     6     1   ar
    29    15     7   ar
    30    14     9   ar
    31    19    21    1
    32    19    22    1
@<TRIPOS>MOLECULE
*****
 29 32 0 0 0
SMALL
GASTEIGER

@<TRIPOS>ATOM
      1 C          61.9713   88.9755   10.6679 C.ar    1  UNL1        0.0542
      2 C          62.5083   88.3364   11.9141 C.ar    1  UNL1        0.0150
      3 C          63.5196   89.0605   12.7525 C.ar    1  UNL1        0.0033
      4 C          63.9940   90.4238   12.3446 C.ar    1  UNL1        0.0239
      5 C          63.4570   91.0629   11.0984 C.ar    1  UNL1        0.0033
      6 C          62.4457   90.3388   10.2600 C.ar    1  UNL1        0.0150
      7 C          65.0053   91.1479   13.1829 C.ar    1  UNL1        0.1107
      8 N          65.7580   90.5752   14.3472 N.ar    1  UNL1       -0.2383
      9 C          66.6594   91.6452   14.8881 C.ar    1  UNL1        0.0878
     10 C          67.6330   91.6553   16.0291 C.ar    1  UNL1        0.0196
     11 C          68.4111   92.8994   16.3401 C.ar    1  UNL1        0.0016
     12 C          68.2156   94.1334   15.5100 C.ar    1  UNL1        0.0006
     13 C          67.2420   94.1233   14.3690 C.ar    1  UNL1        0.0080
     14 C          66.4639   92.8792   14.0580 C.ar    1  UNL1        0.0485
     15 S          65.4416   92.5719   13.0042 S.2     1  UNL1       -0.0665
     16 C          59.9984   89.0264    8.9783 C.2     1  UNL1        0.2455
     17 O          60.0481   90.5255    8.9653 O.2     1  UNL1       -0.2730
     18 N          60.9599   88.2514    9.8296 N.am    1  UNL1       -0.2532
     19 N          58.6797   88.7837    6.7529 N.3     1  UNL1       -0.3135
     20 C          58.9870   88.3022    8.1399 C.3     1  UNL1        0.1521
     21 H          57.9751   88.1786    6.3313 H       1  UNL1        0.1193
     22 H          59.5292   88.7606    6.1889 H       1  UNL1        0.1193
     23 C          60.9102   86.7523    9.8425 C.3     1  UNL1        0.1263
     24 C          61.3192   85.9778    8.6248 C.ar    1  UNL1        0.0172
     25 C          62.7509   85.5691    8.4418 C.ar    1  UNL1        0.0005
     26 C          63.1599   84.7945    7.2242 C.ar    1  UNL1        0.0204
     27 C          62.1373   84.4286    6.1895 C.ar    1  UNL1        0.0989
     28 N          60.7057   84.8373    6.3725 N.ar    1  UNL1       -0.2426
     29 C          60.2967   85.6119    7.5902 C.ar    1  UNL1        0.0962
@<TRIPOS>BOND
     1    19    20    1
     2    20    16    1
     3    16    17    2
     4    16    18   am
     5    18    23    1
     6    23    24    1
     7    24    25   ar
     8    25    26   ar
     9    26    27   ar
    10    27    28   ar
    11    28    29   ar
    12    18     1    1
    13     1     2   ar
    14     2     3   ar
    15     3     4   ar
    16     4     7    1
    17     7     8   ar
    18     8     9   ar
    19     9    10   ar
    20    10    11   ar
    21    11    12   ar
    22    12    13   ar
    23    13    14   ar
    24    14    15   ar
    25     4     5   ar
    26     5     6   ar
    27    29    24   ar
    28     6     1   ar
    29    15     7   ar
    30    14     9   ar
    31    19    21    1
    32    19    22    1
@<TRIPOS>MOLECULE
*****
 29 32 0 0 0
SMALL
GASTEIGER

@<TRIPOS>ATOM
      1 C          44.6755   75.7247   18.5134 C.ar    1  UNL1        0.0542
      2 C          45.5015   75.8552   17.2682 C.ar    1  UNL1        0.0150
      3 C          45.5650   74.7215   16.2881 C.ar    1  UNL1        0.0033
      4 C          44.8024   73.4573   16.5531 C.ar    1  UNL1        0.0239
      5 C          43.9764   73.3268   17.7983 C.ar    1  UNL1        0.0033
      6 C          43.9129   74.4605   18.7785 C.ar    1  UNL1        0.0150
      7 C          44.8659   72.3236   15.5729 C.ar    1  UNL1        0.1107
      8 N          46.0239   71.3904   15.3780 N.ar    1  UNL1       -0.2383
      9 C          45.6562   70.4141   14.3002 C.ar    1  UNL1        0.0878
     10 C          46.4039   69.2674   13.6870 C.ar    1  UNL1        0.0196
     11 C          45.7662   68.4506   12.6025 C.ar    1  UNL1        0.0016
     12 C          44.3808   68.7804   12.1313 C.ar    1  UNL1        0.0006
     13 C          43.6332   69.9271   12.7445 C.ar    1  UNL1        0.0080
     14 C          44.2709   70.7439   13.8290 C.ar    1  UNL1        0.0485
     15 S          43.7824   71.9241   14.6156 S.2     1  UNL1       -0.0665
     16 C          45.5027   76.8571   20.7005 C.2     1  UNL1        0.2455
     17 O          46.4570   75.7222   20.9272 O.2     1  UNL1       -0.2730
     18 N          44.6120   76.8583   19.4936 N.am    1  UNL1       -0.2532
     19 N          46.2071   79.2525   21.4188 N.3     1  UNL1       -0.3135
     20 C          45.4392   77.9908   21.6806 C.3     1  UNL1        0.1521
     21 H          46.0499   79.9108   22.1819 H       1  UNL1        0.1193
     22 H          45.8913   79.6670   20.5419 H       1  UNL1        0.1193
     23 C          43.6578   77.9933   19.2669 C.3     1  UNL1        0.1263
     24 C          44.1310   79.2482   18.5953 C.ar    1  UNL1        0.0172
     25 C          44.9738   79.1643   17.3572 C.ar    1  UNL1        0.0005
     26 C          45.4470   80.4193   16.6856 C.ar    1  UNL1        0.0204
     27 C          45.0774   81.7582   17.2520 C.ar    1  UNL1        0.0989
     28 N          44.2347   81.8421   18.4901 N.ar    1  UNL1       -0.2426
     29 C          43.7615   80.5871   19.1617 C.ar    1  UNL1        0.0962
@<TRIPOS>BOND
     1    19    20    1
     2    20    16    1
     3    16    17    2
     4    16    18   am
     5    18    23    1
     6    23    24    1
     7    24    25   ar
     8    25    26   ar
     9    26    27   ar
    10    27    28   ar
    11    28    29   ar
    12    18     1    1
    13     1     2   ar
    14     2     3   ar
    15     3     4   ar
    16     4     7    1
    17     7     8   ar
    18     8     9   ar
    19     9    10   ar
    20    10    11   ar
    21    11    12   ar
    22    12    13   ar
    23    13    14   ar
    24    14    15   ar
    25     4     5   ar
    26     5     6   ar
    27    29    24   ar
    28     6     1   ar
    29    15     7   ar
    30    14     9   ar
    31    19    21    1
    32    19    22    1
@<TRIPOS>MOLECULE
*****
 29 32 0 0 0
SMALL
GASTEIGER

@<TRIPOS>ATOM
      1 C          60.8315   93.7982   -0.0977 C.ar    1  UNL1        0.0542
      2 C          60.3154   95.1994    0.0444 C.ar    1  UNL1        0.0150
      3 C          58.9865   95.5724   -0.5429 C.ar    1  UNL1        0.0033
      4 C          58.1737   94.5443   -1.2724 C.ar    1  UNL1        0.0239
      5 C          58.6898   93.1431   -1.4145 C.ar    1  UNL1        0.0033
      6 C          60.0187   92.7700   -0.8272 C.ar    1  UNL1        0.0150
      7 C          56.8449   94.9173   -1.8597 C.ar    1  UNL1        0.1107
      8 N          55.5657   95.1038   -1.0988 N.ar    1  UNL1       -0.2383
      9 C          54.4921   95.4711   -2.0798 C.ar    1  UNL1        0.0878
     10 C          53.0335   95.7740   -1.9048 C.ar    1  UNL1        0.0196
     11 C          52.1905   96.1173   -3.0971 C.ar    1  UNL1        0.0016
     12 C          52.8061   96.1578   -4.4643 C.ar    1  UNL1        0.0006
     13 C          54.2647   95.8549   -4.6393 C.ar    1  UNL1        0.0080
     14 C          55.1077   95.5116   -3.4471 C.ar    1  UNL1        0.0485
     15 S          56.5618   95.1694   -3.3110 S.2     1  UNL1       -0.0665
     16 C          62.2371   92.8791    1.8845 C.2     1  UNL1        0.2455
     17 O          60.9850   92.7061    2.6922 O.2     1  UNL1       -0.2730
     18 N          62.1604   93.4251    0.4896 N.am    1  UNL1       -0.2532
     19 N          63.7038   91.2475    3.2762 N.3     1  UNL1       -0.3135
     20 C          63.5660   92.5061    2.4718 C.3     1  UNL1        0.1521
     21 H          64.6678   91.1519    3.5956 H       1  UNL1        0.1193
     22 H          63.4563   90.4451    2.6971 H       1  UNL1        0.1193
     23 C          63.4124   93.5981   -0.3181 C.3     1  UNL1        0.1263
     24 C          63.3299   94.0825   -1.7353 C.ar    1  UNL1        0.0172
     25 C          63.1126   93.1037   -2.8510 C.ar    1  UNL1        0.0005
     26 C          63.0301   93.5881   -4.2682 C.ar    1  UNL1        0.0204
     27 C          63.1647   95.0514   -4.5697 C.ar    1  UNL1        0.0989
     28 N          63.3819   96.0301   -3.4540 N.ar    1  UNL1       -0.2426
     29 C          63.4645   95.5457   -2.0368 C.ar    1  UNL1        0.0962
@<TRIPOS>BOND
     1    19    20    1
     2    20    16    1
     3    16    17    2
     4    16    18   am
     5    18    23    1
     6    23    24    1
     7    24    25   ar
     8    25    26   ar
     9    26    27   ar
    10    27    28   ar
    11    28    29   ar
    12    18     1    1
    13     1     2   ar
    14     2     3   ar
    15     3     4   ar
    16     4     7    1
    17     7     8   ar
    18     8     9   ar
    19     9    10   ar
    20    10    11   ar
    21    11    12   ar
    22    12    13   ar
    23    13    14   ar
    24    14    15   ar
    25     4     5   ar
    26     5     6   ar
    27    29    24   ar
    28     6     1   ar
    29    15     7   ar
    30    14     9   ar
    31    19    21    1
    32    19    22    1
@<TRIPOS>MOLECULE
*****
 29 32 0 0 0
SMALL
GASTEIGER

@<TRIPOS>ATOM
      1 C          44.4252   75.3107   18.6092 C.ar    1  UNL1        0.0542
      2 C          44.7489   73.9064   19.0252 C.ar    1  UNL1        0.0150
      3 C          44.8511   72.8231   17.9927 C.ar    1  UNL1        0.0033
      4 C          44.6296   73.1440   16.5443 C.ar    1  UNL1        0.0239
      5 C          44.3059   74.5484   16.1284 C.ar    1  UNL1        0.0033
      6 C          44.2037   75.6317   17.1608 C.ar    1  UNL1        0.0150
      7 C          44.7318   72.0607   15.5119 C.ar    1  UNL1        0.1107
      8 N          43.7058   71.7402   14.4656 N.ar    1  UNL1       -0.2383
      9 C          44.2179   70.5891   13.6515 C.ar    1  UNL1        0.0878
     10 C          43.6352   69.8464   12.4859 C.ar    1  UNL1        0.0196
     11 C          44.3949   68.7127   11.8634 C.ar    1  UNL1        0.0016
     12 C          45.7374   68.3218   12.4065 C.ar    1  UNL1        0.0006
     13 C          46.3201   69.0645   13.5721 C.ar    1  UNL1        0.0080
     14 C          45.5603   70.1981   14.1947 C.ar    1  UNL1        0.0485
     15 S          45.8779   71.1077   15.3444 S.2     1  UNL1       -0.0665
     16 C          44.4355   76.0548   21.0984 C.2     1  UNL1        0.2455
     17 O          44.6502   74.6322   21.5228 O.2     1  UNL1       -0.2730
     18 N          44.3229   76.3940   19.6417 N.am    1  UNL1       -0.2532
     19 N          45.5244   77.9968   22.4375 N.3     1  UNL1       -0.3135
     20 C          44.3333   77.1381   22.1309 C.3     1  UNL1        0.1521
     21 H          45.2779   78.6756   23.1578 H       1  UNL1        0.1193
     22 H          45.8158   78.4883   21.5925 H       1  UNL1        0.1193
     23 C          44.1082   77.8166   19.2173 C.3     1  UNL1        0.1263
     24 C          45.2823   78.7355   19.0524 C.ar    1  UNL1        0.0172
     25 C          46.6543   78.1682   18.8379 C.ar    1  UNL1        0.0005
     26 C          47.8284   79.0871   18.6730 C.ar    1  UNL1        0.0204
     27 C          47.6305   80.5732   18.7226 C.ar    1  UNL1        0.0989
     28 N          46.2586   81.1404   18.9370 N.ar    1  UNL1       -0.2426
     29 C          45.0845   80.2215   19.1020 C.ar    1  UNL1        0.0962
@<TRIPOS>BOND
     1    19    20    1
     2    20    16    1
     3    16    17    2
     4    16    18   am
     5    18    23    1
     6    23    24    1
     7    24    25   ar
     8    25    26   ar
     9    26    27   ar
    10    27    28   ar
    11    28    29   ar
    12    18     1    1
    13     1     2   ar
    14     2     3   ar
    15     3     4   ar
    16     4     7    1
    17     7     8   ar
    18     8     9   ar
    19     9    10   ar
    20    10    11   ar
    21    11    12   ar
    22    12    13   ar
    23    13    14   ar
    24    14    15   ar
    25     4     5   ar
    26     5     6   ar
    27    29    24   ar
    28     6     1   ar
    29    15     7   ar
    30    14     9   ar
    31    19    21    1
    32    19    22    1
