@<TRIPOS>MOLECULE
*****
 29 32 0 0 0
SMALL
GASTEIGER

@<TRIPOS>ATOM
      1 N          63.4437   85.3226   13.0783 N.pl3   1  UNL1       -0.3040
      2 C          64.2555   85.6750   14.2894 C.3     1  UNL1        0.1123
      3 C          64.5454   87.1123   14.6058 C.3     1  UNL1        0.1149
      4 N          64.0235   88.1972   13.7111 N.pl3   1  UNL1       -0.2777
      5 C          63.2117   87.8448   12.4999 C.3     1  UNL1        0.0953
      6 C          62.6898   88.9297   11.6051 C.3     1  UNL1        0.0233
      7 C          62.9218   86.4075   12.1835 C.3     1  UNL1        0.1106
      8 C          64.3134   89.6345   14.0274 C.ar    1  UNL1        0.2035
      9 N          64.9855   90.5060   13.0082 N.ar    1  UNL1       -0.2133
     10 C          65.2754   91.9433   13.3245 C.ar    1  UNL1        0.1065
     11 C          64.8931   92.5092   14.6601 C.ar    1  UNL1        0.0815
     12 C          64.2210   91.6377   15.6793 C.ar    1  UNL1        0.2646
     13 O          63.8387   92.2036   17.0148 O.2     1  UNL1       -0.2668
     14 N          63.9311   90.2004   15.3629 N.ar    1  UNL1       -0.2667
     15 C          63.2590   89.3290   16.3821 C.3     1  UNL1        0.1363
     16 C          65.9475   92.8148   12.3053 C.ar    1  UNL1        0.1024
     17 C          66.6656   92.1937   11.1440 C.ar    1  UNL1        0.0414
     18 C          67.3377   93.0651   10.1248 C.ar    1  UNL1        0.1023
     19 N          67.2918   94.5577   10.2669 N.ar    1  UNL1       -0.2224
     20 C          66.5737   95.1788   11.4282 C.ar    1  UNL1        0.1989
     21 N          65.9016   94.3073   12.4474 N.ar    1  UNL1       -0.2224
     22 C          62.1085   81.6016   13.4269 C.ar    1  UNL1        0.1400
     23 C          62.5740   81.0107   12.1292 C.ar    1  UNL1        0.0370
     24 C          63.3294   81.8570   11.1479 C.ar    1  UNL1        0.0044
     25 C          63.6193   83.2943   11.4642 C.ar    1  UNL1        0.0147
     26 C          63.1538   83.8852   12.7619 C.ar    1  UNL1        0.0510
     27 C          62.3984   83.0389   13.7433 C.ar    1  UNL1        0.0514
     28 C          59.9088   80.4322   14.1643 C.3     1  UNL1        0.2525
     29 O          61.3531   80.7552   14.4083 O.3     1  UNL1       -0.4714
@<TRIPOS>BOND
     1    28    29    1
     2    29    22    1
     3    22    23   ar
     4    23    24   ar
     5    24    25   ar
     6    25    26   ar
     7    26     1    1
     8     1     2    1
     9     2     3    1
    10     3     4    1
    11     4     8    1
    12     8     9   ar
    13     9    10   ar
    14    10    16    1
    15    16    17   ar
    16    17    18   ar
    17    18    19   ar
    18    19    20   ar
    19    20    21   ar
    20    10    11   ar
    21    11    12   ar
    22    12    13    2
    23    12    14   ar
    24    14    15    1
    25     4     5    1
    26     5     6    1
    27     5     7    1
    28    26    27   ar
    29    27    22   ar
    30     7     1    1
    31    14     8   ar
    32    21    16   ar
@<TRIPOS>MOLECULE
*****
 29 32 0 0 0
SMALL
GASTEIGER

@<TRIPOS>ATOM
      1 N          65.4360   92.1971   12.5946 N.pl3   1  UNL1       -0.3040
      2 C          66.1627   91.7264   13.8194 C.3     1  UNL1        0.1123
      3 C          65.7116   90.4835   14.5279 C.3     1  UNL1        0.1149
      4 N          64.5338   89.7114   14.0114 N.pl3   1  UNL1       -0.2777
      5 C          63.8071   90.1823   12.7865 C.3     1  UNL1        0.0953
      6 C          62.6292   89.4103   12.2701 C.3     1  UNL1        0.0233
      7 C          64.2582   91.4251   12.0782 C.3     1  UNL1        0.1106
      8 C          64.0827   88.4686   14.7198 C.ar    1  UNL1        0.2035
      9 N          64.1661   87.1397   14.0293 N.ar    1  UNL1       -0.2133
     10 C          63.7150   85.8967   14.7377 C.ar    1  UNL1        0.1065
     11 C          63.1804   85.9829   16.1365 C.ar    1  UNL1        0.0815
     12 C          63.0969   87.3120   16.8270 C.ar    1  UNL1        0.2646
     13 O          62.5623   87.3981   18.2259 O.2     1  UNL1       -0.2668
     14 N          63.5480   88.5548   16.1186 N.ar    1  UNL1       -0.2667
     15 C          63.4645   89.8838   16.8091 C.3     1  UNL1        0.1363
     16 C          63.7985   84.5678   14.0472 C.ar    1  UNL1        0.1024
     17 C          63.8854   84.5040   12.5511 C.ar    1  UNL1        0.0414
     18 C          63.9689   83.1750   11.8606 C.ar    1  UNL1        0.1023
     19 N          63.9655   81.9097   12.6663 N.ar    1  UNL1       -0.2224
     20 C          63.8785   81.9734   14.1624 C.ar    1  UNL1        0.1989
     21 N          63.7951   83.3025   14.8529 N.ar    1  UNL1       -0.2224
     22 C          66.6239   94.6452    9.7056 C.ar    1  UNL1        0.1400
     23 C          66.7893   95.9256   10.4692 C.ar    1  UNL1        0.0370
     24 C          66.5036   95.9632   11.9413 C.ar    1  UNL1        0.0044
     25 C          66.0526   94.7204   12.6498 C.ar    1  UNL1        0.0147
     26 C          65.8871   93.4400   11.8861 C.ar    1  UNL1        0.0510
     27 C          66.1728   93.4024   10.4141 C.ar    1  UNL1        0.0514
     28 C          66.5417   95.7762    7.3681 C.3     1  UNL1        0.2525
     29 O          66.9095   94.6076    8.2336 O.3     1  UNL1       -0.4714
@<TRIPOS>BOND
     1    28    29    1
     2    29    22    1
     3    22    23   ar
     4    23    24   ar
     5    24    25   ar
     6    25    26   ar
     7    26     1    1
     8     1     2    1
     9     2     3    1
    10     3     4    1
    11     4     8    1
    12     8     9   ar
    13     9    10   ar
    14    10    16    1
    15    16    17   ar
    16    17    18   ar
    17    18    19   ar
    18    19    20   ar
    19    20    21   ar
    20    10    11   ar
    21    11    12   ar
    22    12    13    2
    23    12    14   ar
    24    14    15    1
    25     4     5    1
    26     5     6    1
    27     5     7    1
    28    26    27   ar
    29    27    22   ar
    30     7     1    1
    31    14     8   ar
    32    21    16   ar
@<TRIPOS>MOLECULE
*****
 29 32 0 0 0
SMALL
GASTEIGER

@<TRIPOS>ATOM
      1 N          62.7169   83.9560   12.8507 N.pl3   1  UNL1       -0.3040
      2 C          62.1982   84.6829   11.6455 C.3     1  UNL1        0.1123
      3 C          62.4277   86.1585   11.5032 C.3     1  UNL1        0.1149
      4 N          63.1760   86.9070   12.5661 N.pl3   1  UNL1       -0.2777
      5 C          63.6947   86.1800   13.7713 C.3     1  UNL1        0.0953
      6 C          64.4430   86.9285   14.8342 C.3     1  UNL1        0.0233
      7 C          63.4652   84.7046   13.9135 C.3     1  UNL1        0.1106
      8 C          63.4056   88.3825   12.4238 C.ar    1  UNL1        0.2035
      9 N          64.1650   89.1286   13.4804 N.ar    1  UNL1       -0.2133
     10 C          64.3946   90.6041   13.3382 C.ar    1  UNL1        0.1065
     11 C          63.8647   91.3334   12.1393 C.ar    1  UNL1        0.0815
     12 C          63.1053   90.5872   11.0826 C.ar    1  UNL1        0.2646
     13 O          62.5754   91.3165    9.8837 O.2     1  UNL1       -0.2668
     14 N          62.8757   89.1118   11.2249 N.ar    1  UNL1       -0.2667
     15 C          62.1163   88.3656   10.1682 C.3     1  UNL1        0.1363
     16 C          65.1540   91.3503   14.3948 C.ar    1  UNL1        0.1024
     17 C          66.5960   91.7005   14.1758 C.ar    1  UNL1        0.0414
     18 C          67.3554   92.4466   15.2325 C.ar    1  UNL1        0.1023
     19 N          66.6728   92.8426   16.5082 N.ar    1  UNL1       -0.2224
     20 C          65.2308   92.4924   16.7271 C.ar    1  UNL1        0.1989
     21 N          64.4714   91.7462   15.6704 N.ar    1  UNL1       -0.2224
     22 C          62.6373   80.0760   12.0204 C.ar    1  UNL1        0.1400
     23 C          62.0283   79.5295   13.2775 C.ar    1  UNL1        0.0370
     24 C          61.6488   80.4586   14.3924 C.ar    1  UNL1        0.0044
     25 C          61.8783   81.9340   14.2501 C.ar    1  UNL1        0.0147
     26 C          62.4873   82.4805   12.9930 C.ar    1  UNL1        0.0510
     27 C          62.8669   81.5515   11.8781 C.ar    1  UNL1        0.0514
     28 C          62.6614   79.4904    9.4893 C.3     1  UNL1        0.2525
     29 O          63.0169   79.1470   10.9055 O.3     1  UNL1       -0.4714
@<TRIPOS>BOND
     1    28    29    1
     2    29    22    1
     3    22    23   ar
     4    23    24   ar
     5    24    25   ar
     6    25    26   ar
     7    26     1    1
     8     1     2    1
     9     2     3    1
    10     3     4    1
    11     4     8    1
    12     8     9   ar
    13     9    10   ar
    14    10    16    1
    15    16    17   ar
    16    17    18   ar
    17    18    19   ar
    18    19    20   ar
    19    20    21   ar
    20    10    11   ar
    21    11    12   ar
    22    12    13    2
    23    12    14   ar
    24    14    15    1
    25     4     5    1
    26     5     6    1
    27     5     7    1
    28    26    27   ar
    29    27    22   ar
    30     7     1    1
    31    14     8   ar
    32    21    16   ar
@<TRIPOS>MOLECULE
*****
 29 32 0 0 0
SMALL
GASTEIGER

@<TRIPOS>ATOM
      1 N          62.7344   84.1254   12.7764 N.pl3   1  UNL1       -0.3040
      2 C          62.2194   84.8824   11.5883 C.3     1  UNL1        0.1123
      3 C          62.4612   86.3587   11.4773 C.3     1  UNL1        0.1149
      4 N          63.2179   87.0778   12.5544 N.pl3   1  UNL1       -0.2777
      5 C          63.7329   86.3207   13.7426 C.3     1  UNL1        0.0953
      6 C          64.4896   87.0398   14.8197 C.3     1  UNL1        0.0233
      7 C          63.4911   84.8445   13.8535 C.3     1  UNL1        0.1106
      8 C          63.4597   88.5540   12.4434 C.ar    1  UNL1        0.2035
      9 N          64.2131   89.2738   13.5224 N.ar    1  UNL1       -0.2133
     10 C          64.4549   90.7501   13.4115 C.ar    1  UNL1        0.1065
     11 C          63.9433   91.5065   12.2215 C.ar    1  UNL1        0.0815
     12 C          63.1898   90.7867   11.1425 C.ar    1  UNL1        0.2646
     13 O          62.6782   91.5431    9.9525 O.2     1  UNL1       -0.2668
     14 N          62.9480   89.3105   11.2535 N.ar    1  UNL1       -0.2667
     15 C          62.1946   88.5907   10.1745 C.3     1  UNL1        0.1363
     16 C          65.2083   91.4698   14.4904 C.ar    1  UNL1        0.1024
     17 C          66.6648   91.7795   14.3095 C.ar    1  UNL1        0.0414
     18 C          67.4183   92.4992   15.3885 C.ar    1  UNL1        0.1023
     19 N          66.7152   92.9094   16.6485 N.ar    1  UNL1       -0.2224
     20 C          65.2587   92.5997   16.8295 C.ar    1  UNL1        0.1989
     21 N          64.5053   91.8799   15.7504 N.ar    1  UNL1       -0.2224
     22 C          61.2031   80.6531   13.9377 C.ar    1  UNL1        0.1400
     23 C          62.0090   79.6968   13.1096 C.ar    1  UNL1        0.0370
     24 C          63.0568   80.2166   12.1704 C.ar    1  UNL1        0.0044
     25 C          63.2985   81.6928   12.0594 C.ar    1  UNL1        0.0147
     26 C          62.4926   82.6491   12.8875 C.ar    1  UNL1        0.0510
     27 C          61.4448   82.1293   13.8266 C.ar    1  UNL1        0.0514
     28 C          58.7508   79.9258   14.3929 C.3     1  UNL1        0.2525
     29 O          60.1553   80.1333   14.8768 O.3     1  UNL1       -0.4714
@<TRIPOS>BOND
     1    28    29    1
     2    29    22    1
     3    22    23   ar
     4    23    24   ar
     5    24    25   ar
     6    25    26   ar
     7    26     1    1
     8     1     2    1
     9     2     3    1
    10     3     4    1
    11     4     8    1
    12     8     9   ar
    13     9    10   ar
    14    10    16    1
    15    16    17   ar
    16    17    18   ar
    17    18    19   ar
    18    19    20   ar
    19    20    21   ar
    20    10    11   ar
    21    11    12   ar
    22    12    13    2
    23    12    14   ar
    24    14    15    1
    25     4     5    1
    26     5     6    1
    27     5     7    1
    28    26    27   ar
    29    27    22   ar
    30     7     1    1
    31    14     8   ar
    32    21    16   ar
@<TRIPOS>MOLECULE
*****
 29 32 0 0 0
SMALL
GASTEIGER

@<TRIPOS>ATOM
      1 N          62.5623   83.7064   12.1584 N.pl3   1  UNL1       -0.3040
      2 C          62.5116   84.6021   13.3606 C.3     1  UNL1        0.1123
      3 C          62.4414   86.0901   13.1848 C.3     1  UNL1        0.1149
      4 N          62.4217   86.6824   11.8068 N.pl3   1  UNL1       -0.2777
      5 C          62.4724   85.7867   10.6046 C.3     1  UNL1        0.0953
      6 C          62.4527   86.3790    9.2267 C.3     1  UNL1        0.0233
      7 C          62.5426   84.2987   10.7805 C.3     1  UNL1        0.1106
      8 C          62.3515   88.1704   11.6310 C.ar    1  UNL1        0.2035
      9 N          63.5186   89.0277   12.0216 N.ar    1  UNL1       -0.2133
     10 C          63.4484   90.5158   11.8458 C.ar    1  UNL1        0.1065
     11 C          62.2110   91.1464   11.2793 C.ar    1  UNL1        0.0815
     12 C          61.0437   90.2891   10.8886 C.ar    1  UNL1        0.2646
     13 O          59.8063   90.9197   10.3220 O.2     1  UNL1       -0.2668
     14 N          61.1140   88.8011   11.0644 N.ar    1  UNL1       -0.2667
     15 C          59.9468   87.9438   10.6737 C.3     1  UNL1        0.1363
     16 C          64.6156   91.3730   12.2365 C.ar    1  UNL1        0.1024
     17 C          65.1859   92.3554   11.2568 C.ar    1  UNL1        0.0414
     18 C          66.3531   93.2127   11.6475 C.ar    1  UNL1        0.1023
     19 N          66.9500   93.0877   13.0180 N.ar    1  UNL1       -0.2224
     20 C          66.3798   92.1053   13.9977 C.ar    1  UNL1        0.1989
     21 N          65.2125   91.2480   13.6069 N.ar    1  UNL1       -0.2224
     22 C          62.8243   79.8384   11.3102 C.ar    1  UNL1        0.1400
     23 C          62.7731   79.2424   12.6857 C.ar    1  UNL1        0.0370
     24 C          62.6516   80.1344   13.8855 C.ar    1  UNL1        0.0044
     25 C          62.5813   81.6224   13.7098 C.ar    1  UNL1        0.0147
     26 C          62.6325   82.2184   12.3343 C.ar    1  UNL1        0.0510
     27 C          62.7540   81.3263   11.1344 C.ar    1  UNL1        0.0514
     28 C          62.9585   77.4562   10.2819 C.3     1  UNL1        0.2525
     29 O          62.9458   78.9463   10.1104 O.3     1  UNL1       -0.4714
@<TRIPOS>BOND
     1    28    29    1
     2    29    22    1
     3    22    23   ar
     4    23    24   ar
     5    24    25   ar
     6    25    26   ar
     7    26     1    1
     8     1     2    1
     9     2     3    1
    10     3     4    1
    11     4     8    1
    12     8     9   ar
    13     9    10   ar
    14    10    16    1
    15    16    17   ar
    16    17    18   ar
    17    18    19   ar
    18    19    20   ar
    19    20    21   ar
    20    10    11   ar
    21    11    12   ar
    22    12    13    2
    23    12    14   ar
    24    14    15    1
    25     4     5    1
    26     5     6    1
    27     5     7    1
    28    26    27   ar
    29    27    22   ar
    30     7     1    1
    31    14     8   ar
    32    21    16   ar
@<TRIPOS>MOLECULE
*****
 29 32 0 0 0
SMALL
GASTEIGER

@<TRIPOS>ATOM
      1 N          63.6528   85.2357   13.1972 N.pl3   1  UNL1       -0.3040
      2 C          64.3440   85.3775   14.5208 C.3     1  UNL1        0.1123
      3 C          64.6281   86.7417   15.0762 C.3     1  UNL1        0.1149
      4 N          64.2209   87.9640   14.3079 N.pl3   1  UNL1       -0.2777
      5 C          63.5296   87.8221   12.9842 C.3     1  UNL1        0.0953
      6 C          63.1224   89.0443   12.2159 C.3     1  UNL1        0.0233
      7 C          63.2455   86.4579   12.4289 C.3     1  UNL1        0.1106
      8 C          64.5049   89.3281   14.8632 C.ar    1  UNL1        0.2035
      9 N          65.8494   89.9588   14.6519 N.ar    1  UNL1       -0.2133
     10 C          66.1335   91.3230   15.2072 C.ar    1  UNL1        0.1065
     11 C          65.0731   92.0565   15.9738 C.ar    1  UNL1        0.0815
     12 C          63.7286   91.4257   16.1851 C.ar    1  UNL1        0.2646
     13 O          62.6682   92.1591   16.9516 O.2     1  UNL1       -0.2668
     14 N          63.4446   90.0616   15.6297 N.ar    1  UNL1       -0.2667
     15 C          62.1001   89.4309   15.8410 C.3     1  UNL1        0.1363
     16 C          67.4779   91.9537   14.9960 C.ar    1  UNL1        0.1024
     17 C          68.0027   92.9505   15.9864 C.ar    1  UNL1        0.0414
     18 C          69.3472   93.5812   15.7751 C.ar    1  UNL1        0.1023
     19 N          70.1669   93.2150   14.5734 N.ar    1  UNL1       -0.2224
     20 C          69.6421   92.2182   13.5830 C.ar    1  UNL1        0.1989
     21 N          68.2976   91.5875   13.7943 N.ar    1  UNL1       -0.2224
     22 C          62.4042   81.4774   12.9387 C.ar    1  UNL1        0.1400
     23 C          62.8005   81.1432   11.5312 C.ar    1  UNL1        0.0370
     24 C          63.4808   82.1732   10.6789 C.ar    1  UNL1        0.0044
     25 C          63.7649   83.5373   11.2342 C.ar    1  UNL1        0.0147
     26 C          63.3687   83.8715   12.6418 C.ar    1  UNL1        0.0510
     27 C          62.6883   82.8415   13.4940 C.ar    1  UNL1        0.0514
     28 C          60.2731   80.6018   14.1393 C.3     1  UNL1        0.2525
     29 O          61.7239   80.4475   13.7910 O.3     1  UNL1       -0.4714
@<TRIPOS>BOND
     1    28    29    1
     2    29    22    1
     3    22    23   ar
     4    23    24   ar
     5    24    25   ar
     6    25    26   ar
     7    26     1    1
     8     1     2    1
     9     2     3    1
    10     3     4    1
    11     4     8    1
    12     8     9   ar
    13     9    10   ar
    14    10    16    1
    15    16    17   ar
    16    17    18   ar
    17    18    19   ar
    18    19    20   ar
    19    20    21   ar
    20    10    11   ar
    21    11    12   ar
    22    12    13    2
    23    12    14   ar
    24    14    15    1
    25     4     5    1
    26     5     6    1
    27     5     7    1
    28    26    27   ar
    29    27    22   ar
    30     7     1    1
    31    14     8   ar
    32    21    16   ar
@<TRIPOS>MOLECULE
*****
 29 32 0 0 0
SMALL
GASTEIGER

@<TRIPOS>ATOM
      1 N          62.6731   83.8519   12.2706 N.pl3   1  UNL1       -0.3040
      2 C          61.9992   84.4887   11.0916 C.3     1  UNL1        0.1123
      3 C          61.9698   85.9828   10.9612 C.3     1  UNL1        0.1149
      4 N          62.6145   86.8400   12.0098 N.pl3   1  UNL1       -0.2777
      5 C          63.2885   86.2031   13.1889 C.3     1  UNL1        0.0953
      6 C          63.9332   87.0602   14.2375 C.3     1  UNL1        0.0233
      7 C          63.3178   84.7091   13.3193 C.3     1  UNL1        0.1106
      8 C          62.5852   88.3340   11.8794 C.ar    1  UNL1        0.2035
      9 N          63.7542   89.1505   12.3448 N.ar    1  UNL1       -0.2133
     10 C          63.7250   90.6446   12.2144 C.ar    1  UNL1        0.1065
     11 C          62.5266   91.3221   11.6187 C.ar    1  UNL1        0.0815
     12 C          61.3575   90.5055   11.1533 C.ar    1  UNL1        0.2646
     13 O          60.1592   91.1830   10.5576 O.2     1  UNL1       -0.2668
     14 N          61.3868   89.0115   11.2837 N.ar    1  UNL1       -0.2667
     15 C          60.2178   88.1950   10.8184 C.3     1  UNL1        0.1363
     16 C          64.8940   91.4610   12.6798 C.ar    1  UNL1        0.1024
     17 C          65.4997   91.2035   14.0277 C.ar    1  UNL1        0.0414
     18 C          66.6688   92.0200   14.4930 C.ar    1  UNL1        0.1023
     19 N          67.2322   93.0941   13.6105 N.ar    1  UNL1       -0.2224
     20 C          66.6266   93.3517   12.2626 C.ar    1  UNL1        0.1989
     21 N          65.4574   92.5351   11.7972 N.ar    1  UNL1       -0.2224
     22 C          62.8562   80.0064   11.3069 C.ar    1  UNL1        0.1400
     23 C          62.7611   79.3698   12.6618 C.ar    1  UNL1        0.0370
     24 C          62.6367   80.2272   13.8863 C.ar    1  UNL1        0.0044
     25 C          62.6074   81.7212   13.7559 C.ar    1  UNL1        0.0147
     26 C          62.7025   82.3578   12.4010 C.ar    1  UNL1        0.0510
     27 C          62.8269   81.5004   11.1766 C.ar    1  UNL1        0.0514
     28 C          62.8885   77.6564   10.1995 C.3     1  UNL1        0.2525
     29 O          62.9806   79.1490   10.0825 O.3     1  UNL1       -0.4714
@<TRIPOS>BOND
     1    28    29    1
     2    29    22    1
     3    22    23   ar
     4    23    24   ar
     5    24    25   ar
     6    25    26   ar
     7    26     1    1
     8     1     2    1
     9     2     3    1
    10     3     4    1
    11     4     8    1
    12     8     9   ar
    13     9    10   ar
    14    10    16    1
    15    16    17   ar
    16    17    18   ar
    17    18    19   ar
    18    19    20   ar
    19    20    21   ar
    20    10    11   ar
    21    11    12   ar
    22    12    13    2
    23    12    14   ar
    24    14    15    1
    25     4     5    1
    26     5     6    1
    27     5     7    1
    28    26    27   ar
    29    27    22   ar
    30     7     1    1
    31    14     8   ar
    32    21    16   ar
