@<TRIPOS>MOLECULE
*****
 29 33 0 0 0
SMALL
GASTEIGER

@<TRIPOS>ATOM
      1 C          63.6596   85.8727   15.5690 C.ar    1  UNL1        0.1749
      2 N          63.2172   85.5589   16.9674 N.ar    1  UNL1       -0.1306
      3 N          62.9330   86.8557   17.6657 N.ar    1  UNL1       -0.1272
      4 C          63.1998   87.9710   16.6987 C.ar    1  UNL1        0.1864
      5 C          63.0918   89.4612   16.8308 C.ar    1  UNL1        0.0422
      6 C          63.4329   90.3440   15.6670 C.ar    1  UNL1        0.0241
      7 C          63.8819   89.7365   14.3712 C.ar    1  UNL1        0.1015
      8 N          63.9899   88.2462   14.2391 N.ar    1  UNL1       -0.1626
      9 N          63.6488   87.3634   15.4029 N.ar    1  UNL1       -0.1943
     10 C          64.2230   90.6192   13.2074 C.ar    1  UNL1        0.0194
     11 C          65.3288   91.6255   13.3281 C.ar    1  UNL1        0.0016
     12 C          65.6698   92.5082   12.1642 C.ar    1  UNL1        0.0000
     13 C          64.9052   92.3846   10.8798 C.ar    1  UNL1        0.0000
     14 C          63.7994   91.3783   10.7590 C.ar    1  UNL1        0.0000
     15 C          63.4583   90.4956   11.9228 C.ar    1  UNL1        0.0016
     16 C          64.0450   84.8715   14.5205 C.3     1  UNL1        0.1295
     17 S          62.9907   84.2501   13.6532 S.3     1  UNL1       -0.1053
     18 C          61.1730   87.2194    9.5145 C.ar    1  UNL1        0.1402
     19 C          60.9816   87.2798   11.0010 C.ar    1  UNL1        0.0370
     20 C          61.6513   86.2699   11.8851 C.ar    1  UNL1        0.0051
     21 C          62.5124   85.1996   11.2827 C.ar    1  UNL1        0.0236
     22 C          63.1820   84.1897   12.1667 C.ar    1  UNL1        0.0286
     23 C          64.0431   83.1194   11.5643 C.ar    1  UNL1        0.0268
     24 C          64.2345   83.0589   10.0778 C.ar    1  UNL1        0.0993
     25 N          63.5648   84.0688    9.1937 N.ar    1  UNL1       -0.2437
     26 C          62.7037   85.1392    9.7962 C.ar    1  UNL1        0.0848
     27 C          62.0340   86.1491    8.9121 C.ar    1  UNL1        0.0560
     28 C          59.4155   87.7998    7.6912 C.3     1  UNL1        0.2525
     29 O          60.5033   88.2293    8.6304 O.3     1  UNL1       -0.4714
@<TRIPOS>BOND
     1    28    29    1
     2    29    18    1
     3    18    19   ar
     4    19    20   ar
     5    20    21   ar
     6    21    22   ar
     7    22    17    1
     8    17    16    1
     9    16     1    1
    10     1     2   ar
    11     2     3   ar
    12     3     4   ar
    13     4     5   ar
    14     5     6   ar
    15     6     7   ar
    16     7    10    1
    17    10    11   ar
    18    11    12   ar
    19    12    13   ar
    20    13    14   ar
    21    14    15   ar
    22     7     8   ar
    23     8     9   ar
    24    22    23   ar
    25    23    24   ar
    26    24    25   ar
    27    25    26   ar
    28    26    27   ar
    29    27    18   ar
    30    26    21   ar
    31     9     1   ar
    32     9     4   ar
    33    15    10   ar
@<TRIPOS>MOLECULE
*****
 29 33 0 0 0
SMALL
GASTEIGER

@<TRIPOS>ATOM
      1 C          61.4157   89.6354   11.4401 C.ar    1  UNL1        0.1749
      2 N          60.5438   90.4425   10.5245 N.ar    1  UNL1       -0.1306
      3 N          60.1076   89.5541    9.3974 N.ar    1  UNL1       -0.1272
      4 C          60.7099   88.1979    9.6163 C.ar    1  UNL1        0.1864
      5 C          60.6266   86.9238    8.8293 C.ar    1  UNL1        0.0422
      6 C          61.3518   85.6997    9.3046 C.ar    1  UNL1        0.0241
      7 C          62.1602   85.7499   10.5671 C.ar    1  UNL1        0.1015
      8 N          62.2435   87.0241   11.3542 N.ar    1  UNL1       -0.1626
      9 N          61.5183   88.2481   10.8788 N.ar    1  UNL1       -0.1943
     10 C          62.8854   84.5260   11.0425 C.ar    1  UNL1        0.0194
     11 C          63.6410   83.6750   10.0654 C.ar    1  UNL1        0.0016
     12 C          64.3662   82.4510   10.5408 C.ar    1  UNL1        0.0000
     13 C          64.3357   82.0780   11.9933 C.ar    1  UNL1        0.0000
     14 C          63.5801   82.9290   12.9705 C.ar    1  UNL1        0.0000
     15 C          62.8549   84.1529   12.4951 C.ar    1  UNL1        0.0016
     16 C          62.0701   90.1288   12.6964 C.3     1  UNL1        0.1295
     17 S          63.5310   89.8800   12.9286 S.3     1  UNL1       -0.1053
     18 C          66.2974   94.1216   11.0296 C.ar    1  UNL1        0.1402
     19 C          65.4486   93.0629   10.3904 C.ar    1  UNL1        0.0370
     20 C          64.8094   92.0019   11.2365 C.ar    1  UNL1        0.0051
     21 C          65.0190   91.9997   12.7217 C.ar    1  UNL1        0.0236
     22 C          64.3798   90.9388   13.5678 C.ar    1  UNL1        0.0286
     23 C          64.5894   90.9366   15.0531 C.ar    1  UNL1        0.0268
     24 C          65.4382   91.9954   15.6923 C.ar    1  UNL1        0.0993
     25 N          66.0774   93.0563   14.8462 N.ar    1  UNL1       -0.2437
     26 C          65.8678   93.0585   13.3609 C.ar    1  UNL1        0.0848
     27 C          66.5069   94.1194   12.5148 C.ar    1  UNL1        0.0560
     28 C          67.6071   94.8108    8.8943 C.3     1  UNL1        0.2525
     29 O          66.9365   95.1826   10.1835 O.3     1  UNL1       -0.4714
@<TRIPOS>BOND
     1    28    29    1
     2    29    18    1
     3    18    19   ar
     4    19    20   ar
     5    20    21   ar
     6    21    22   ar
     7    22    17    1
     8    17    16    1
     9    16     1    1
    10     1     2   ar
    11     2     3   ar
    12     3     4   ar
    13     4     5   ar
    14     5     6   ar
    15     6     7   ar
    16     7    10    1
    17    10    11   ar
    18    11    12   ar
    19    12    13   ar
    20    13    14   ar
    21    14    15   ar
    22     7     8   ar
    23     8     9   ar
    24    22    23   ar
    25    23    24   ar
    26    24    25   ar
    27    25    26   ar
    28    26    27   ar
    29    27    18   ar
    30    26    21   ar
    31     9     1   ar
    32     9     4   ar
    33    15    10   ar
@<TRIPOS>MOLECULE
*****
 29 33 0 0 0
SMALL
GASTEIGER

@<TRIPOS>ATOM
      1 C          64.0445   87.4939   14.2469 C.ar    1  UNL1        0.1749
      2 N          64.7445   86.4041   15.0035 N.ar    1  UNL1       -0.1306
      3 N          64.4929   85.1090   14.2899 N.ar    1  UNL1       -0.1272
      4 C          63.6373   85.3983   13.0922 C.ar    1  UNL1        0.1864
      5 C          63.0748   84.5100   12.0224 C.ar    1  UNL1        0.0422
      6 C          62.2352   85.0957   10.9260 C.ar    1  UNL1        0.0241
      7 C          61.9582   86.5696   10.8994 C.ar    1  UNL1        0.1015
      8 N          62.5207   87.4579   11.9693 N.ar    1  UNL1       -0.1626
      9 N          63.3603   86.8722   13.0657 N.ar    1  UNL1       -0.1943
     10 C          61.1186   87.1553    9.8030 C.ar    1  UNL1        0.0194
     11 C          60.4134   86.2525    8.8347 C.ar    1  UNL1        0.0016
     12 C          59.5738   86.8383    7.7383 C.ar    1  UNL1        0.0000
     13 C          59.4394   88.3266    7.6103 C.ar    1  UNL1        0.0000
     14 C          60.1446   89.2294    8.5786 C.ar    1  UNL1        0.0000
     15 C          60.9841   88.6438    9.6750 C.ar    1  UNL1        0.0016
     16 C          64.0312   88.9497   14.6081 C.3     1  UNL1        0.1295
     17 S          64.2625   89.9872   13.5497 S.3     1  UNL1       -0.1053
     18 C          65.9194   94.2354   10.6416 C.ar    1  UNL1        0.1402
     19 C          65.1219   93.0053   10.3244 C.ar    1  UNL1        0.0370
     20 C          64.8354   91.9993   11.3995 C.ar    1  UNL1        0.0051
     21 C          65.3465   92.2234   12.7918 C.ar    1  UNL1        0.0236
     22 C          65.0600   91.2173   13.8669 C.ar    1  UNL1        0.0286
     23 C          65.5710   91.4415   15.2592 C.ar    1  UNL1        0.0268
     24 C          66.3686   92.6717   15.5765 C.ar    1  UNL1        0.0993
     25 N          66.6550   93.6777   14.5014 N.ar    1  UNL1       -0.2437
     26 C          66.1439   93.4535   13.1090 C.ar    1  UNL1        0.0848
     27 C          66.4304   94.4596   12.0339 C.ar    1  UNL1        0.0560
     28 C          67.2194   94.9356    8.5040 C.3     1  UNL1        0.2525
     29 O          66.2058   95.2415    9.5665 O.3     1  UNL1       -0.4714
@<TRIPOS>BOND
     1    28    29    1
     2    29    18    1
     3    18    19   ar
     4    19    20   ar
     5    20    21   ar
     6    21    22   ar
     7    22    17    1
     8    17    16    1
     9    16     1    1
    10     1     2   ar
    11     2     3   ar
    12     3     4   ar
    13     4     5   ar
    14     5     6   ar
    15     6     7   ar
    16     7    10    1
    17    10    11   ar
    18    11    12   ar
    19    12    13   ar
    20    13    14   ar
    21    14    15   ar
    22     7     8   ar
    23     8     9   ar
    24    22    23   ar
    25    23    24   ar
    26    24    25   ar
    27    25    26   ar
    28    26    27   ar
    29    27    18   ar
    30    26    21   ar
    31     9     1   ar
    32     9     4   ar
    33    15    10   ar
@<TRIPOS>MOLECULE
*****
 29 33 0 0 0
SMALL
GASTEIGER

@<TRIPOS>ATOM
      1 C          61.1229   89.5749   11.0833 C.ar    1  UNL1        0.1749
      2 N          60.2734   90.2917   10.0761 N.ar    1  UNL1       -0.1306
      3 N          59.9436   89.3261    8.9767 N.ar    1  UNL1       -0.1272
      4 C          60.5893   88.0124    9.3044 C.ar    1  UNL1        0.1864
      5 C          60.6078   86.6961    8.5855 C.ar    1  UNL1        0.0422
      6 C          61.3550   85.5334    9.1685 C.ar    1  UNL1        0.0241
      7 C          62.0839   85.6872   10.4705 C.ar    1  UNL1        0.1015
      8 N          62.0654   87.0036   11.1894 N.ar    1  UNL1       -0.1626
      9 N          61.3181   88.1662   10.6064 N.ar    1  UNL1       -0.1943
     10 C          62.8311   84.5246   11.0536 C.ar    1  UNL1        0.0194
     11 C          63.6295   83.6221   10.1602 C.ar    1  UNL1        0.0016
     12 C          64.3768   82.4595   10.7434 C.ar    1  UNL1        0.0000
     13 C          64.3257   82.1995   12.2197 C.ar    1  UNL1        0.0000
     14 C          63.5273   83.1020   13.1130 C.ar    1  UNL1        0.0000
     15 C          62.7800   84.2645   12.5300 C.ar    1  UNL1        0.0016
     16 C          61.6795   90.1634   12.3459 C.3     1  UNL1        0.1295
     17 S          63.1479   90.0645   12.6357 S.3     1  UNL1       -0.1053
     18 C          66.7964   93.0425   15.2946 C.ar    1  UNL1        0.1402
     19 C          65.8768   91.9260   15.6915 C.ar    1  UNL1        0.0370
     20 C          64.9672   91.3055   14.6729 C.ar    1  UNL1        0.0051
     21 C          64.9772   91.8015   13.2574 C.ar    1  UNL1        0.0236
     22 C          64.0675   91.1811   12.2388 C.ar    1  UNL1        0.0286
     23 C          64.0776   91.6771   10.8232 C.ar    1  UNL1        0.0268
     24 C          64.9972   92.7937   10.4262 C.ar    1  UNL1        0.0993
     25 N          65.9068   93.4142   11.4448 N.ar    1  UNL1       -0.2437
     26 C          65.8968   92.9181   12.8604 C.ar    1  UNL1        0.0848
     27 C          66.8064   93.5386   13.8791 C.ar    1  UNL1        0.0560
     28 C          69.0983   94.0671   15.9282 C.3     1  UNL1        0.2525
     29 O          67.7060   93.6630   16.3132 O.3     1  UNL1       -0.4714
@<TRIPOS>BOND
     1    28    29    1
     2    29    18    1
     3    18    19   ar
     4    19    20   ar
     5    20    21   ar
     6    21    22   ar
     7    22    17    1
     8    17    16    1
     9    16     1    1
    10     1     2   ar
    11     2     3   ar
    12     3     4   ar
    13     4     5   ar
    14     5     6   ar
    15     6     7   ar
    16     7    10    1
    17    10    11   ar
    18    11    12   ar
    19    12    13   ar
    20    13    14   ar
    21    14    15   ar
    22     7     8   ar
    23     8     9   ar
    24    22    23   ar
    25    23    24   ar
    26    24    25   ar
    27    25    26   ar
    28    26    27   ar
    29    27    18   ar
    30    26    21   ar
    31     9     1   ar
    32     9     4   ar
    33    15    10   ar
@<TRIPOS>MOLECULE
*****
 29 33 0 0 0
SMALL
GASTEIGER

@<TRIPOS>ATOM
      1 C          64.3049   90.6602   13.9827 C.ar    1  UNL1        0.1749
      2 N          65.1105   91.9224   14.0714 N.ar    1  UNL1       -0.1306
      3 N          65.0737   92.5911   12.7292 N.ar    1  UNL1       -0.1272
      4 C          64.2454   91.7421   11.8109 C.ar    1  UNL1        0.1864
      5 C          63.8624   91.9015   10.3695 C.ar    1  UNL1        0.0422
      6 C          63.0043   90.8676    9.7026 C.ar    1  UNL1        0.0241
      7 C          62.5291   89.6743   10.4773 C.ar    1  UNL1        0.1015
      8 N          62.9121   89.5149   11.9188 N.ar    1  UNL1       -0.1626
      9 N          63.7702   90.5488   12.5856 N.ar    1  UNL1       -0.1943
     10 C          61.6709   88.6404    9.8105 C.ar    1  UNL1        0.0194
     11 C          62.0004   87.1844    9.9570 C.ar    1  UNL1        0.0016
     12 C          61.1422   86.1505    9.2902 C.ar    1  UNL1        0.0000
     13 C          59.9546   86.5726    8.4770 C.ar    1  UNL1        0.0000
     14 C          59.6252   88.0286    8.3305 C.ar    1  UNL1        0.0000
     15 C          60.4833   89.0625    8.9972 C.ar    1  UNL1        0.0016
     16 C          64.0743   89.6813   15.0956 C.3     1  UNL1        0.1295
     17 S          64.4664   88.2437   14.9232 S.3     1  UNL1       -0.1053
     18 C          63.3634   83.0431   13.9298 C.ar    1  UNL1        0.1402
     19 C          64.0910   84.1148   13.1735 C.ar    1  UNL1        0.0370
     20 C          64.2161   85.4911   13.7567 C.ar    1  UNL1        0.0051
     21 C          63.6136   85.7957   15.0962 C.ar    1  UNL1        0.0236
     22 C          63.7388   87.1720   15.6794 C.ar    1  UNL1        0.0286
     23 C          63.1363   87.4766   17.0189 C.ar    1  UNL1        0.0268
     24 C          62.4086   86.4048   17.7752 C.ar    1  UNL1        0.0993
     25 N          62.2835   85.0285   17.1920 N.ar    1  UNL1       -0.2437
     26 C          62.8860   84.7240   15.8524 C.ar    1  UNL1        0.0848
     27 C          62.7609   83.3477   15.2692 C.ar    1  UNL1        0.0560
     28 C          61.9527   80.9068   13.4869 C.3     1  UNL1        0.2525
     29 O          63.2382   81.6668   13.3465 O.3     1  UNL1       -0.4714
@<TRIPOS>BOND
     1    28    29    1
     2    29    18    1
     3    18    19   ar
     4    19    20   ar
     5    20    21   ar
     6    21    22   ar
     7    22    17    1
     8    17    16    1
     9    16     1    1
    10     1     2   ar
    11     2     3   ar
    12     3     4   ar
    13     4     5   ar
    14     5     6   ar
    15     6     7   ar
    16     7    10    1
    17    10    11   ar
    18    11    12   ar
    19    12    13   ar
    20    13    14   ar
    21    14    15   ar
    22     7     8   ar
    23     8     9   ar
    24    22    23   ar
    25    23    24   ar
    26    24    25   ar
    27    25    26   ar
    28    26    27   ar
    29    27    18   ar
    30    26    21   ar
    31     9     1   ar
    32     9     4   ar
    33    15    10   ar
@<TRIPOS>MOLECULE
*****
 29 33 0 0 0
SMALL
GASTEIGER

@<TRIPOS>ATOM
      1 C          64.1811   88.5788   14.2091 C.ar    1  UNL1        0.1749
      2 N          64.7201   89.8631   14.7657 N.ar    1  UNL1       -0.1306
      3 N          64.4122   90.9577   13.7874 N.ar    1  UNL1       -0.1272
      4 C          63.6829   90.3498   12.6261 C.ar    1  UNL1        0.1864
      5 C          63.1305   90.9451   11.3650 C.ar    1  UNL1        0.0422
      6 C          62.4352   90.0701   10.3644 C.ar    1  UNL1        0.0241
      7 C          62.2924   88.5998   10.6251 C.ar    1  UNL1        0.1015
      8 N          62.8449   88.0046   11.8862 N.ar    1  UNL1       -0.1626
      9 N          63.5401   88.8795   12.8867 N.ar    1  UNL1       -0.1943
     10 C          61.5972   87.7249    9.6245 C.ar    1  UNL1        0.0194
     11 C          62.2804   86.4973    9.0989 C.ar    1  UNL1        0.0016
     12 C          61.5850   85.6223    8.0984 C.ar    1  UNL1        0.0000
     13 C          60.2066   85.9749    7.6235 C.ar    1  UNL1        0.0000
     14 C          59.5234   87.2025    8.1492 C.ar    1  UNL1        0.0000
     15 C          60.2187   88.0774    9.1497 C.ar    1  UNL1        0.0016
     16 C          64.2679   87.2303   14.8604 C.3     1  UNL1        0.1295
     17 S          64.5149   86.0087   14.0257 S.3     1  UNL1       -0.1053
     18 C          63.3314   81.7225   10.9471 C.ar    1  UNL1        0.1402
     19 C          64.1647   82.9526   10.7413 C.ar    1  UNL1        0.0370
     20 C          64.2814   83.9713   11.8361 C.ar    1  UNL1        0.0051
     21 C          63.5648   83.7599   13.1367 C.ar    1  UNL1        0.0236
     22 C          63.6816   84.7786   14.2315 C.ar    1  UNL1        0.0286
     23 C          62.9650   84.5673   15.5322 C.ar    1  UNL1        0.0268
     24 C          62.1316   83.3371   15.7381 C.ar    1  UNL1        0.0993
     25 N          62.0149   82.3184   14.6433 N.ar    1  UNL1       -0.2437
     26 C          62.7315   82.5298   13.3426 C.ar    1  UNL1        0.0848
     27 C          62.6148   81.5111   12.2478 C.ar    1  UNL1        0.0560
     28 C          62.8380   79.2895   10.1809 C.3     1  UNL1        0.2525
     29 O          63.2147   80.7038    9.8523 O.3     1  UNL1       -0.4714
@<TRIPOS>BOND
     1    28    29    1
     2    29    18    1
     3    18    19   ar
     4    19    20   ar
     5    20    21   ar
     6    21    22   ar
     7    22    17    1
     8    17    16    1
     9    16     1    1
    10     1     2   ar
    11     2     3   ar
    12     3     4   ar
    13     4     5   ar
    14     5     6   ar
    15     6     7   ar
    16     7    10    1
    17    10    11   ar
    18    11    12   ar
    19    12    13   ar
    20    13    14   ar
    21    14    15   ar
    22     7     8   ar
    23     8     9   ar
    24    22    23   ar
    25    23    24   ar
    26    24    25   ar
    27    25    26   ar
    28    26    27   ar
    29    27    18   ar
    30    26    21   ar
    31     9     1   ar
    32     9     4   ar
    33    15    10   ar
@<TRIPOS>MOLECULE
*****
 29 33 0 0 0
SMALL
GASTEIGER

@<TRIPOS>ATOM
      1 C          63.7461   87.8866   15.5576 C.ar    1  UNL1        0.1749
      2 N          63.3537   88.1704   16.9772 N.ar    1  UNL1       -0.1306
      3 N          62.7992   86.9073   17.5663 N.ar    1  UNL1       -0.1272
      4 C          62.8489   85.8427   16.5106 C.ar    1  UNL1        0.1864
      5 C          62.4370   84.4005   16.5195 C.ar    1  UNL1        0.0422
      6 C          62.6102   83.5634   15.2868 C.ar    1  UNL1        0.0241
      7 C          63.1955   84.1687   14.0454 C.ar    1  UNL1        0.1015
      8 N          63.6075   85.6109   14.0366 N.ar    1  UNL1       -0.1626
      9 N          63.4342   86.4480   15.2692 N.ar    1  UNL1       -0.1943
     10 C          63.3688   83.3316   12.8128 C.ar    1  UNL1        0.0194
     11 C          62.7691   81.9582   12.7485 C.ar    1  UNL1        0.0016
     12 C          62.9424   81.1212   11.5158 C.ar    1  UNL1        0.0000
     13 C          63.7153   81.6576   10.3476 C.ar    1  UNL1        0.0000
     14 C          64.3150   83.0310   10.4119 C.ar    1  UNL1        0.0000
     15 C          64.1417   83.8680   11.6445 C.ar    1  UNL1        0.0016
     16 C          64.3454   88.8689   14.5952 C.3     1  UNL1        0.1295
     17 S          63.6186   90.1405   14.2717 S.3     1  UNL1       -0.1053
     18 C          66.3840   93.6672   11.2443 C.ar    1  UNL1        0.1402
     19 C          66.4943   93.2078   12.6679 C.ar    1  UNL1        0.0370
     20 C          65.5357   92.1854   13.2025 C.ar    1  UNL1        0.0051
     21 C          64.4668   91.6224   12.3135 C.ar    1  UNL1        0.0236
     22 C          63.5082   90.5999   12.8481 C.ar    1  UNL1        0.0286
     23 C          62.4393   90.0369   11.9591 C.ar    1  UNL1        0.0268
     24 C          62.3289   90.4964   10.5354 C.ar    1  UNL1        0.0993
     25 N          63.2875   91.5188   10.0008 N.ar    1  UNL1       -0.2437
     26 C          64.3565   92.0818   10.8899 C.ar    1  UNL1        0.0848
     27 C          65.3150   93.1042   10.3553 C.ar    1  UNL1        0.0560
     28 C          67.7138   94.6819    9.2564 C.3     1  UNL1        0.2525
     29 O          67.3425   94.6896   10.7097 O.3     1  UNL1       -0.4714
@<TRIPOS>BOND
     1    28    29    1
     2    29    18    1
     3    18    19   ar
     4    19    20   ar
     5    20    21   ar
     6    21    22   ar
     7    22    17    1
     8    17    16    1
     9    16     1    1
    10     1     2   ar
    11     2     3   ar
    12     3     4   ar
    13     4     5   ar
    14     5     6   ar
    15     6     7   ar
    16     7    10    1
    17    10    11   ar
    18    11    12   ar
    19    12    13   ar
    20    13    14   ar
    21    14    15   ar
    22     7     8   ar
    23     8     9   ar
    24    22    23   ar
    25    23    24   ar
    26    24    25   ar
    27    25    26   ar
    28    26    27   ar
    29    27    18   ar
    30    26    21   ar
    31     9     1   ar
    32     9     4   ar
    33    15    10   ar
@<TRIPOS>MOLECULE
*****
 29 33 0 0 0
SMALL
GASTEIGER

@<TRIPOS>ATOM
      1 C          62.8404   90.2549   13.5410 C.ar    1  UNL1        0.1749
      2 N          62.7048   89.8226   14.9709 N.ar    1  UNL1       -0.1306
      3 N          63.8741   90.3710   15.7338 N.ar    1  UNL1       -0.1272
      4 C          64.7325   91.1422   14.7753 C.ar    1  UNL1        0.1864
      5 C          66.0131   91.9005   14.9615 C.ar    1  UNL1        0.0422
      6 C          66.6550   92.5871   13.7924 C.ar    1  UNL1        0.0241
      7 C          66.0162   92.5152   12.4372 C.ar    1  UNL1        0.1015
      8 N          64.7354   91.7569   12.2510 N.ar    1  UNL1       -0.1626
      9 N          64.0936   91.0704   13.4201 N.ar    1  UNL1       -0.1943
     10 C          66.6580   93.2017   11.2681 C.ar    1  UNL1        0.0194
     11 C          66.3867   94.6542   11.0098 C.ar    1  UNL1        0.0016
     12 C          67.0287   95.3407    9.8407 C.ar    1  UNL1        0.0000
     13 C          67.9417   94.5747    8.9300 C.ar    1  UNL1        0.0000
     14 C          68.2130   93.1223    9.1883 C.ar    1  UNL1        0.0000
     15 C          67.5711   92.4358   10.3573 C.ar    1  UNL1        0.0016
     16 C          61.8898   89.9288   12.4274 C.3     1  UNL1        0.1295
     17 S          62.4179   89.4658   11.1019 S.3     1  UNL1       -0.1053
     18 C          63.2084   84.3666   12.7216 C.ar    1  UNL1        0.1402
     19 C          63.6137   85.7049   13.2643 C.ar    1  UNL1        0.0370
     20 C          63.2151   86.9585   12.5435 C.ar    1  UNL1        0.0051
     21 C          62.4112   86.8738   11.2800 C.ar    1  UNL1        0.0236
     22 C          62.0126   88.1275   10.5592 C.ar    1  UNL1        0.0286
     23 C          61.2087   88.0428    9.2957 C.ar    1  UNL1        0.0268
     24 C          60.8033   86.7044    8.7529 C.ar    1  UNL1        0.0993
     25 N          61.2020   85.4508    9.4737 N.ar    1  UNL1       -0.2437
     26 C          62.0059   85.5355   10.7373 C.ar    1  UNL1        0.0848
     27 C          62.4045   84.2819   11.4580 C.ar    1  UNL1        0.0560
     28 C          63.8525   83.1442   14.9218 C.3     1  UNL1        0.2525
     29 O          63.6070   83.1130   13.4423 O.3     1  UNL1       -0.4714
@<TRIPOS>BOND
     1    28    29    1
     2    29    18    1
     3    18    19   ar
     4    19    20   ar
     5    20    21   ar
     6    21    22   ar
     7    22    17    1
     8    17    16    1
     9    16     1    1
    10     1     2   ar
    11     2     3   ar
    12     3     4   ar
    13     4     5   ar
    14     5     6   ar
    15     6     7   ar
    16     7    10    1
    17    10    11   ar
    18    11    12   ar
    19    12    13   ar
    20    13    14   ar
    21    14    15   ar
    22     7     8   ar
    23     8     9   ar
    24    22    23   ar
    25    23    24   ar
    26    24    25   ar
    27    25    26   ar
    28    26    27   ar
    29    27    18   ar
    30    26    21   ar
    31     9     1   ar
    32     9     4   ar
    33    15    10   ar
@<TRIPOS>MOLECULE
*****
 29 33 0 0 0
SMALL
GASTEIGER

@<TRIPOS>ATOM
      1 C          64.0876   87.0222   14.2686 C.ar    1  UNL1        0.1749
      2 N          64.7397   85.8839   14.9960 N.ar    1  UNL1       -0.1306
      3 N          64.4218   84.6183   14.2563 N.ar    1  UNL1       -0.1272
      4 C          63.5733   84.9744   13.0717 C.ar    1  UNL1        0.1864
      5 C          62.9621   84.1378   11.9871 C.ar    1  UNL1        0.0422
      6 C          62.1442   84.7868   10.9101 C.ar    1  UNL1        0.0241
      7 C          61.9377   86.2725   10.9177 C.ar    1  UNL1        0.1015
      8 N          62.5490   87.1091   12.0023 N.ar    1  UNL1       -0.1626
      9 N          63.3668   86.4601   13.0793 N.ar    1  UNL1       -0.1943
     10 C          61.1199   86.9215    9.8407 C.ar    1  UNL1        0.0194
     11 C          61.0294   88.4169    9.7661 C.ar    1  UNL1        0.0016
     12 C          60.2116   89.0660    8.6890 C.ar    1  UNL1        0.0000
     13 C          59.4844   88.2196    7.6867 C.ar    1  UNL1        0.0000
     14 C          59.5749   86.7242    7.7612 C.ar    1  UNL1        0.0000
     15 C          60.3927   86.0752    8.8382 C.ar    1  UNL1        0.0016
     16 C          64.1462   88.4687   14.6615 C.3     1  UNL1        0.1295
     17 S          63.2806   89.4723   13.9588 S.3     1  UNL1       -0.1053
     18 C          67.5839   92.7321   14.2837 C.ar    1  UNL1        0.1402
     19 C          66.9666   91.7289   15.2124 C.ar    1  UNL1        0.0370
     20 C          65.7379   90.9767   14.7946 C.ar    1  UNL1        0.0051
     21 C          65.1266   91.2277   13.4480 C.ar    1  UNL1        0.0236
     22 C          63.8979   90.4755   13.0302 C.ar    1  UNL1        0.0286
     23 C          63.2866   90.7265   11.6836 C.ar    1  UNL1        0.0268
     24 C          63.9039   91.7298   10.7549 C.ar    1  UNL1        0.0993
     25 N          65.1325   92.4819   11.1727 N.ar    1  UNL1       -0.2437
     26 C          65.7439   92.2309   12.5194 C.ar    1  UNL1        0.0848
     27 C          66.9725   92.9831   12.9372 C.ar    1  UNL1        0.0560
     28 C          68.8544   94.1712   16.0344 C.3     1  UNL1        0.2525
     29 O          68.8126   93.4843   14.7016 O.3     1  UNL1       -0.4714
@<TRIPOS>BOND
     1    28    29    1
     2    29    18    1
     3    18    19   ar
     4    19    20   ar
     5    20    21   ar
     6    21    22   ar
     7    22    17    1
     8    17    16    1
     9    16     1    1
    10     1     2   ar
    11     2     3   ar
    12     3     4   ar
    13     4     5   ar
    14     5     6   ar
    15     6     7   ar
    16     7    10    1
    17    10    11   ar
    18    11    12   ar
    19    12    13   ar
    20    13    14   ar
    21    14    15   ar
    22     7     8   ar
    23     8     9   ar
    24    22    23   ar
    25    23    24   ar
    26    24    25   ar
    27    25    26   ar
    28    26    27   ar
    29    27    18   ar
    30    26    21   ar
    31     9     1   ar
    32     9     4   ar
    33    15    10   ar
