@<TRIPOS>MOLECULE
*****
 39 42 0 0 0
SMALL
GASTEIGER

@<TRIPOS>ATOM
      1 C          64.1663   89.3763   13.1771 C.ar    1  UNL1        0.0053
      2 C          64.4458   89.1737   14.6368 C.ar    1  UNL1        0.0033
      3 C          64.2144   87.8316   15.2654 C.ar    1  UNL1        0.0382
      4 C          63.7035   86.6922   14.4344 C.ar    1  UNL1        0.1529
      5 C          63.4239   86.8948   12.9747 C.ar    1  UNL1        0.0881
      6 C          63.6553   88.2369   12.3461 C.ar    1  UNL1        0.0181
      7 N          62.9130   85.7554   12.1436 N.am    1  UNL1       -0.2529
      8 C          62.6816   84.4133   12.7722 C.2     1  UNL1        0.2697
      9 O          62.1706   83.2739   11.9412 O.2     1  UNL1       -0.2704
     10 C          62.9612   84.2106   14.2320 C.3     1  UNL1        0.2199
     11 C          63.0773   83.5301   15.5637 C.3     1  UNL1        0.0579
     12 O          63.4721   85.3500   15.0631 O.3     1  UNL1       -0.4686
     13 C          65.2778   91.7241   13.2297 C.ar    1  UNL1        0.0645
     14 N          65.5092   93.0662   12.6010 N.ar    1  UNL1       -0.2183
     15 C          64.8604   93.4027   11.2911 C.ar    1  UNL1        0.2145
     16 N          65.0918   94.7448   10.6624 N.pl3   1  UNL1       -0.3274
     17 N          63.9803   92.3971   10.6098 N.ar    1  UNL1       -0.1995
     18 C          63.7489   91.0550   11.2385 C.ar    1  UNL1        0.1293
     19 N          62.8687   90.0494   10.5573 N.pl3   1  UNL1       -0.3425
     20 C          64.3976   90.7185   12.5484 C.ar    1  UNL1        0.0449
     21 H          65.6695   95.4048   11.1096 H       1  UNL1        0.1452
     22 H          64.6660   94.9657    9.8027 H       1  UNL1        0.1452
     23 H          62.4429   90.2702    9.6975 H       1  UNL1        0.1437
     24 H          62.7169   89.1685   10.9699 H       1  UNL1        0.1437
     25 C          67.3955   91.6229   14.7314 C.3     1  UNL1        0.0067
     26 C          65.9265   91.3875   14.5396 C.3     1  UNL1        0.0460
     27 C          62.4906   82.8349   13.8634 C.ar    1  UNL1        0.0264
     28 C          63.2615   82.0203   12.8674 C.ar    1  UNL1        0.0293
     29 C          62.7908   80.6445   12.4989 C.ar    1  UNL1        0.1422
     30 F          63.5619   79.8299   11.5028 F       1  UNL1       -0.2041
     31 C          61.5493   80.0834   13.1263 C.ar    1  UNL1        0.0592
     32 C          60.7784   80.8980   14.1223 C.ar    1  UNL1        0.1422
     33 F          59.5368   80.3369   14.7497 F       1  UNL1       -0.2041
     34 C          61.2490   82.2737   14.4909 C.ar    1  UNL1        0.0293
     35 C          62.6334   85.9581   10.6839 C.3     1  UNL1        0.0995
     36 C          61.2184   86.0772   10.2008 C.3     1  UNL1        0.0380
     37 C          60.6092   87.4318    9.9904 C.3     1  UNL1        0.1072
     38 C          60.0020   88.1689   11.1471 C.1     1  UNL1        0.0732
     39 N          59.3949   88.9061   12.3038 N.1     1  UNL1       -0.1959
@<TRIPOS>BOND
     1    25    26    1
     2    26    13    1
     3    13    14   ar
     4    14    15   ar
     5    15    16    1
     6    15    17   ar
     7    17    18   ar
     8    18    19    1
     9    18    20   ar
    10    20     1    1
    11     1     2   ar
    12     2     3   ar
    13     3     4   ar
    14     4     5   ar
    15     5     6   ar
    16     5     7    1
    17     7    35    1
    18    35    36    1
    19    36    37    1
    20    37    38    1
    21    38    39    3
    22     7     8   am
    23     8     9    2
    24     8    10    1
    25    10    11    1
    26    10    27    1
    27    27    28   ar
    28    28    29   ar
    29    29    30    1
    30    29    31   ar
    31    31    32   ar
    32    32    33    1
    33    32    34   ar
    34    10    12    1
    35    20    13   ar
    36     6     1   ar
    37    34    27   ar
    38    12     4    1
    39    16    21    1
    40    16    22    1
    41    19    23    1
    42    19    24    1
@<TRIPOS>MOLECULE
*****
 39 42 0 0 0
SMALL
GASTEIGER

@<TRIPOS>ATOM
      1 C          64.1611   89.3795   13.1787 C.ar    1  UNL1        0.0053
      2 C          64.4240   89.1780   14.6416 C.ar    1  UNL1        0.0033
      3 C          64.1872   87.8359   15.2682 C.ar    1  UNL1        0.0382
      4 C          63.6876   86.6953   14.4319 C.ar    1  UNL1        0.1529
      5 C          63.4247   86.8968   12.9690 C.ar    1  UNL1        0.0881
      6 C          63.6615   88.2389   12.3423 C.ar    1  UNL1        0.0181
      7 N          62.9251   85.7562   12.1327 N.am    1  UNL1       -0.2529
      8 C          62.6883   84.4141   12.7593 C.2     1  UNL1        0.2697
      9 O          62.1887   83.2735   11.9230 O.2     1  UNL1       -0.2704
     10 C          62.9512   84.2126   14.2223 C.3     1  UNL1        0.2199
     11 C          63.0528   83.5330   15.5557 C.3     1  UNL1        0.0579
     12 O          63.4508   85.3532   15.0586 O.3     1  UNL1       -0.4686
     13 C          65.2997   91.7144   13.2236 C.ar    1  UNL1        0.0645
     14 N          65.5364   93.0565   12.5970 N.ar    1  UNL1       -0.2183
     15 C          64.8714   93.4058   11.2986 C.ar    1  UNL1        0.2145
     16 N          65.1082   94.7479   10.6720 N.pl3   1  UNL1       -0.3274
     17 N          63.9696   92.4131   10.6269 N.ar    1  UNL1       -0.1995
     18 C          63.7329   91.0709   11.2536 C.ar    1  UNL1        0.1293
     19 N          62.8311   90.0781   10.5819 N.pl3   1  UNL1       -0.3425
     20 C          64.3979   90.7216   12.5519 C.ar    1  UNL1        0.0449
     21 H          65.7001   95.3995   11.1128 H       1  UNL1        0.1452
     22 H          64.6717   94.9772    9.8198 H       1  UNL1        0.1452
     23 H          62.3946   90.3074    9.7298 H       1  UNL1        0.1437
     24 H          62.6757   89.1973   10.9932 H       1  UNL1        0.1437
     25 C          67.3834   91.7819   14.7740 C.3     1  UNL1        0.0067
     26 C          65.9647   91.3651   14.5220 C.3     1  UNL1        0.0460
     27 C          62.4869   82.8360   13.8491 C.ar    1  UNL1        0.0264
     28 C          61.2434   82.2703   14.4685 C.ar    1  UNL1        0.0293
     29 C          60.7791   80.8936   14.0952 C.ar    1  UNL1        0.1422
     30 F          59.5355   80.3279   14.7147 F       1  UNL1       -0.2041
     31 C          61.5581   80.0828   13.1026 C.ar    1  UNL1        0.0592
     32 C          62.8016   80.6485   12.4832 C.ar    1  UNL1        0.1422
     33 F          63.5808   79.8376   11.4905 F       1  UNL1       -0.2041
     34 C          63.2660   82.0251   12.8564 C.ar    1  UNL1        0.0293
     35 C          62.6623   85.9577   10.6697 C.3     1  UNL1        0.0995
     36 C          61.2522   86.0004   10.1600 C.3     1  UNL1        0.0380
     37 C          60.5768   87.3203    9.9319 C.3     1  UNL1        0.1072
     38 C          60.0310   88.0943   11.0951 C.1     1  UNL1        0.0732
     39 N          59.4853   88.8684   12.2583 N.1     1  UNL1       -0.1959
@<TRIPOS>BOND
     1    25    26    1
     2    26    13    1
     3    13    14   ar
     4    14    15   ar
     5    15    16    1
     6    15    17   ar
     7    17    18   ar
     8    18    19    1
     9    18    20   ar
    10    20     1    1
    11     1     2   ar
    12     2     3   ar
    13     3     4   ar
    14     4     5   ar
    15     5     6   ar
    16     5     7    1
    17     7    35    1
    18    35    36    1
    19    36    37    1
    20    37    38    1
    21    38    39    3
    22     7     8   am
    23     8     9    2
    24     8    10    1
    25    10    11    1
    26    10    27    1
    27    27    28   ar
    28    28    29   ar
    29    29    30    1
    30    29    31   ar
    31    31    32   ar
    32    32    33    1
    33    32    34   ar
    34    10    12    1
    35    20    13   ar
    36     6     1   ar
    37    34    27   ar
    38    12     4    1
    39    16    21    1
    40    16    22    1
    41    19    23    1
    42    19    24    1
@<TRIPOS>MOLECULE
*****
 39 42 0 0 0
SMALL
GASTEIGER

@<TRIPOS>ATOM
      1 C          65.3927   90.7543   14.1139 C.ar    1  UNL1        0.0053
      2 C          65.0781   89.4864   14.8510 C.ar    1  UNL1        0.0033
      3 C          64.1401   88.4823   14.2494 C.ar    1  UNL1        0.0382
      4 C          63.5168   88.7461   12.9108 C.ar    1  UNL1        0.1529
      5 C          63.8314   90.0140   12.1737 C.ar    1  UNL1        0.0881
      6 C          64.7694   91.0181   12.7753 C.ar    1  UNL1        0.0181
      7 N          63.2081   90.2778   10.8351 N.am    1  UNL1       -0.2529
      8 C          62.2702   89.2737   10.2335 C.2     1  UNL1        0.2697
      9 O          61.6469   89.5375    8.8949 O.2     1  UNL1       -0.2704
     10 C          61.9555   88.0057   10.9706 C.3     1  UNL1        0.2199
     11 C          61.3515   86.6680   11.2801 C.3     1  UNL1        0.0579
     12 O          62.5788   87.7419   12.3092 O.3     1  UNL1       -0.4686
     13 C          67.6643   92.0148   14.0784 C.ar    1  UNL1        0.0645
     14 N          68.6023   93.0189   14.6799 N.ar    1  UNL1       -0.2183
     15 C          68.2067   93.7669   15.9185 C.ar    1  UNL1        0.2145
     16 N          69.1447   94.7710   16.5200 N.pl3   1  UNL1       -0.3274
     17 N          66.8731   93.5107   16.5556 N.ar    1  UNL1       -0.1995
     18 C          65.9351   92.5065   15.9540 C.ar    1  UNL1        0.1293
     19 N          64.6014   92.2503   16.5911 N.pl3   1  UNL1       -0.3425
     20 C          66.3307   91.7585   14.7155 C.ar    1  UNL1        0.0449
     21 H          70.0199   94.9392   16.1019 H       1  UNL1        0.1452
     22 H          68.8850   95.2620   17.3329 H       1  UNL1        0.1452
     23 H          64.3418   92.7412   17.4040 H       1  UNL1        0.1437
     24 H          63.9858   91.5912   16.1963 H       1  UNL1        0.1437
     25 C          68.3941   92.0175   11.5849 C.3     1  UNL1        0.0067
     26 C          68.0599   91.2668   12.8398 C.3     1  UNL1        0.0460
     27 C          61.1225   87.8049    9.7395 C.ar    1  UNL1        0.0264
     28 C          61.1547   86.4901    9.0183 C.ar    1  UNL1        0.0293
     29 C          60.3216   86.2894    7.7871 C.ar    1  UNL1        0.1422
     30 F          60.3540   84.9744    7.0659 F       1  UNL1       -0.2041
     31 C          59.4563   87.4034    7.2772 C.ar    1  UNL1        0.0592
     32 C          59.4241   88.7182    7.9984 C.ar    1  UNL1        0.1422
     33 F          58.5587   89.8323    7.4885 F       1  UNL1       -0.2041
     34 C          60.2571   88.9190    9.2295 C.ar    1  UNL1        0.0293
     35 C          63.5228   91.5458   10.0981 C.3     1  UNL1        0.0995
     36 C          64.9003   92.1348   10.1730 C.3     1  UNL1        0.0380
     37 C          65.0780   93.5870   10.5041 C.3     1  UNL1        0.1072
     38 C          66.3484   94.2915   10.1302 C.1     1  UNL1        0.0732
     39 N          67.6188   94.9959    9.7562 N.1     1  UNL1       -0.1959
@<TRIPOS>BOND
     1    25    26    1
     2    26    13    1
     3    13    14   ar
     4    14    15   ar
     5    15    16    1
     6    15    17   ar
     7    17    18   ar
     8    18    19    1
     9    18    20   ar
    10    20     1    1
    11     1     2   ar
    12     2     3   ar
    13     3     4   ar
    14     4     5   ar
    15     5     6   ar
    16     5     7    1
    17     7    35    1
    18    35    36    1
    19    36    37    1
    20    37    38    1
    21    38    39    3
    22     7     8   am
    23     8     9    2
    24     8    10    1
    25    10    11    1
    26    10    27    1
    27    27    28   ar
    28    28    29   ar
    29    29    30    1
    30    29    31   ar
    31    31    32   ar
    32    32    33    1
    33    32    34   ar
    34    10    12    1
    35    20    13   ar
    36     6     1   ar
    37    34    27   ar
    38    12     4    1
    39    16    21    1
    40    16    22    1
    41    19    23    1
    42    19    24    1
@<TRIPOS>MOLECULE
*****
 39 42 0 0 0
SMALL
GASTEIGER

@<TRIPOS>ATOM
      1 C          64.1633   89.2816   13.2564 C.ar    1  UNL1        0.0053
      2 C          64.4431   89.0686   14.7146 C.ar    1  UNL1        0.0033
      3 C          64.2074   87.7234   15.3348 C.ar    1  UNL1        0.0382
      4 C          63.6918   86.5911   14.4968 C.ar    1  UNL1        0.1529
      5 C          63.4120   86.8041   13.0386 C.ar    1  UNL1        0.0881
      6 C          63.6478   88.1494   12.4184 C.ar    1  UNL1        0.0181
      7 N          62.8965   85.6719   12.2006 N.am    1  UNL1       -0.2529
      8 C          62.6607   84.3266   12.8208 C.2     1  UNL1        0.2697
      9 O          62.1452   83.1944   11.9828 O.2     1  UNL1       -0.2704
     10 C          62.9405   84.1136   14.2790 C.3     1  UNL1        0.2199
     11 C          63.0551   83.4242   15.6063 C.3     1  UNL1        0.0579
     12 O          63.4561   85.2458   15.1170 O.3     1  UNL1       -0.4686
     13 C          63.6958   91.0004   11.3650 C.ar    1  UNL1        0.0645
     14 N          63.9315   92.3456   10.7447 N.ar    1  UNL1       -0.2183
     15 C          64.8706   93.3175   11.3957 C.ar    1  UNL1        0.2145
     16 N          65.1063   94.6627   10.7754 N.pl3   1  UNL1       -0.3274
     17 N          65.5739   92.9441   12.6668 N.ar    1  UNL1       -0.1995
     18 C          65.3381   91.5987   13.2871 C.ar    1  UNL1        0.1293
     19 N          66.0415   91.2253   14.5583 N.pl3   1  UNL1       -0.3425
     20 C          64.3991   90.6269   12.6362 C.ar    1  UNL1        0.0449
     21 H          64.6446   94.9078    9.9411 H       1  UNL1        0.1452
     22 H          65.7226   95.3006   11.2026 H       1  UNL1        0.1452
     23 H          66.6578   91.8632   14.9855 H       1  UNL1        0.1437
     24 H          65.8868   90.3424   14.9653 H       1  UNL1        0.1437
     25 C          61.3044   90.3734   10.5660 C.3     1  UNL1        0.0067
     26 C          62.7567   90.0285   10.7141 C.3     1  UNL1        0.0460
     27 C          62.4648   82.7419   13.9020 C.ar    1  UNL1        0.0264
     28 C          63.2396   81.9256   12.9104 C.ar    1  UNL1        0.0293
     29 C          62.7638   80.5539   12.5334 C.ar    1  UNL1        0.1422
     30 F          63.5387   79.7375   11.5417 F       1  UNL1       -0.2041
     31 C          61.5133   79.9986   13.1478 C.ar    1  UNL1        0.0592
     32 C          60.7384   80.8149   14.1394 C.ar    1  UNL1        0.1422
     33 F          59.4878   80.2596   14.7539 F       1  UNL1       -0.2041
     34 C          61.2141   82.1866   14.5165 C.ar    1  UNL1        0.0293
     35 C          62.6167   85.8849   10.7424 C.3     1  UNL1        0.0995
     36 C          61.2703   86.3775   10.3012 C.3     1  UNL1        0.0380
     37 C          61.0975   86.9607    8.9300 C.3     1  UNL1        0.1072
     38 C          59.7988   86.7876    8.1997 C.1     1  UNL1        0.0732
     39 N          58.5000   86.6146    7.4694 N.1     1  UNL1       -0.1959
@<TRIPOS>BOND
     1    25    26    1
     2    26    13    1
     3    13    14   ar
     4    14    15   ar
     5    15    16    1
     6    15    17   ar
     7    17    18   ar
     8    18    19    1
     9    18    20   ar
    10    20     1    1
    11     1     2   ar
    12     2     3   ar
    13     3     4   ar
    14     4     5   ar
    15     5     6   ar
    16     5     7    1
    17     7    35    1
    18    35    36    1
    19    36    37    1
    20    37    38    1
    21    38    39    3
    22     7     8   am
    23     8     9    2
    24     8    10    1
    25    10    11    1
    26    10    27    1
    27    27    28   ar
    28    28    29   ar
    29    29    30    1
    30    29    31   ar
    31    31    32   ar
    32    32    33    1
    33    32    34   ar
    34    10    12    1
    35    20    13   ar
    36     6     1   ar
    37    34    27   ar
    38    12     4    1
    39    16    21    1
    40    16    22    1
    41    19    23    1
    42    19    24    1
@<TRIPOS>MOLECULE
*****
 39 42 0 0 0
SMALL
GASTEIGER

@<TRIPOS>ATOM
      1 C          64.7645   90.2403   13.6996 C.ar    1  UNL1        0.0053
      2 C          63.8155   90.5506   12.5803 C.ar    1  UNL1        0.0033
      3 C          63.0560   89.4430   11.9122 C.ar    1  UNL1        0.0382
      4 C          63.2456   88.0251   12.3634 C.ar    1  UNL1        0.1529
      5 C          64.1946   87.7148   13.4827 C.ar    1  UNL1        0.0881
      6 C          64.9541   88.8224   14.1508 C.ar    1  UNL1        0.0181
      7 N          64.3842   86.2969   13.9340 N.am    1  UNL1       -0.2529
      8 C          63.6248   85.1893   13.2659 C.2     1  UNL1        0.2697
      9 O          63.8143   83.7714   13.7171 O.2     1  UNL1       -0.2704
     10 C          62.6757   85.4996   12.1465 C.3     1  UNL1        0.2199
     11 C          61.6713   85.2925   11.0518 C.3     1  UNL1        0.0579
     12 O          62.4861   86.9175   11.6952 O.3     1  UNL1       -0.4686
     13 C          66.6680   92.0081   13.6567 C.ar    1  UNL1        0.0645
     14 N          67.4275   93.1157   14.3248 N.ar    1  UNL1       -0.2183
     15 C          67.0431   93.5631   15.7040 C.ar    1  UNL1        0.2145
     16 N          67.8026   94.6707   16.3721 N.pl3   1  UNL1       -0.3274
     17 N          65.8992   92.9029   16.4151 N.ar    1  UNL1       -0.1995
     18 C          65.1397   91.7953   15.7469 C.ar    1  UNL1        0.1293
     19 N          63.9957   91.1350   16.4580 N.pl3   1  UNL1       -0.3425
     20 C          65.5241   91.3479   14.3678 C.ar    1  UNL1        0.0449
     21 H          68.5534   95.1040   15.9054 H       1  UNL1        0.1452
     22 H          67.5503   94.9643   17.2773 H       1  UNL1        0.1452
     23 H          63.7435   91.4287   17.3631 H       1  UNL1        0.1437
     24 H          63.4973   90.4081   16.0194 H       1  UNL1        0.1437
     25 C          66.8853   92.4917   11.1133 C.3     1  UNL1        0.0067
     26 C          67.0523   91.5607   12.2775 C.3     1  UNL1        0.0460
     27 C          62.5164   84.0098   12.2176 C.ar    1  UNL1        0.0264
     28 C          61.8771   83.3803   13.4197 C.ar    1  UNL1        0.0293
     29 C          61.7179   81.8905   13.4907 C.ar    1  UNL1        0.1422
     30 F          61.0785   81.2611   14.6929 F       1  UNL1       -0.2041
     31 C          62.1980   81.0301   12.3598 C.ar    1  UNL1        0.0592
     32 C          62.8373   81.6595   11.1577 C.ar    1  UNL1        0.1422
     33 F          63.3174   80.7991   10.0266 F       1  UNL1       -0.2041
     34 C          62.9966   83.1494   11.0865 C.ar    1  UNL1        0.0293
     35 C          65.3333   85.9866   15.0533 C.3     1  UNL1        0.0995
     36 C          64.8245   85.3528   16.3141 C.3     1  UNL1        0.0380
     37 C          63.4763   85.7306   16.8523 C.3     1  UNL1        0.1072
     38 C          63.0554   87.1702   16.8776 C.1     1  UNL1        0.0732
     39 N          62.6345   88.6097   16.9028 N.1     1  UNL1       -0.1959
@<TRIPOS>BOND
     1    25    26    1
     2    26    13    1
     3    13    14   ar
     4    14    15   ar
     5    15    16    1
     6    15    17   ar
     7    17    18   ar
     8    18    19    1
     9    18    20   ar
    10    20     1    1
    11     1     2   ar
    12     2     3   ar
    13     3     4   ar
    14     4     5   ar
    15     5     6   ar
    16     5     7    1
    17     7    35    1
    18    35    36    1
    19    36    37    1
    20    37    38    1
    21    38    39    3
    22     7     8   am
    23     8     9    2
    24     8    10    1
    25    10    11    1
    26    10    27    1
    27    27    28   ar
    28    28    29   ar
    29    29    30    1
    30    29    31   ar
    31    31    32   ar
    32    32    33    1
    33    32    34   ar
    34    10    12    1
    35    20    13   ar
    36     6     1   ar
    37    34    27   ar
    38    12     4    1
    39    16    21    1
    40    16    22    1
    41    19    23    1
    42    19    24    1
@<TRIPOS>MOLECULE
*****
 39 42 0 0 0
SMALL
GASTEIGER

@<TRIPOS>ATOM
      1 C          64.6557   90.0585   13.7657 C.ar    1  UNL1        0.0053
      2 C          63.7109   90.3670   12.6423 C.ar    1  UNL1        0.0033
      3 C          62.9778   89.2551   11.9522 C.ar    1  UNL1        0.0382
      4 C          63.1895   87.8348   12.3855 C.ar    1  UNL1        0.1529
      5 C          64.1343   87.5262   13.5090 C.ar    1  UNL1        0.0881
      6 C          64.8674   88.6381   14.1991 C.ar    1  UNL1        0.0181
      7 N          64.3459   86.1059   13.9423 N.am    1  UNL1       -0.2529
      8 C          63.6128   84.9940   13.2522 C.2     1  UNL1        0.2697
      9 O          63.8245   83.5737   13.6855 O.2     1  UNL1       -0.2704
     10 C          62.6680   85.3025   12.1287 C.3     1  UNL1        0.2199
     11 C          61.6772   85.0924   11.0223 C.3     1  UNL1        0.0579
     12 O          62.4563   86.7229   11.6953 O.3     1  UNL1       -0.4686
     13 C          64.8610   91.7312   15.7431 C.ar    1  UNL1        0.0645
     14 N          65.5941   92.8430   16.4333 N.ar    1  UNL1       -0.2183
     15 C          66.8551   93.3940   15.8363 C.ar    1  UNL1        0.2145
     16 N          67.5882   94.5059   16.5264 N.pl3   1  UNL1       -0.3274
     17 N          67.3830   92.8332   14.5491 N.ar    1  UNL1       -0.1995
     18 C          66.6498   91.7213   13.8589 C.ar    1  UNL1        0.1293
     19 N          67.1776   91.1604   12.5718 N.pl3   1  UNL1       -0.3425
     20 C          65.3889   91.1703   14.4559 C.ar    1  UNL1        0.0449
     21 H          67.2417   94.8740   17.3712 H       1  UNL1        0.1452
     22 H          68.4158   94.8675   16.1346 H       1  UNL1        0.1452
     23 H          68.0053   91.5220   12.1799 H       1  UNL1        0.1437
     24 H          66.6965   90.4307   12.1188 H       1  UNL1        0.1437
     25 C          63.5471   89.7516   16.7942 C.3     1  UNL1        0.0067
     26 C          63.6000   91.1802   16.3401 C.3     1  UNL1        0.0460
     27 C          62.5356   83.8092   12.1778 C.ar    1  UNL1        0.0264
     28 C          63.0408   82.9736   11.0391 C.ar    1  UNL1        0.0293
     29 C          62.9083   81.4803   11.0882 C.ar    1  UNL1        0.1422
     30 F          63.4136   80.6447    9.9494 F       1  UNL1       -0.2041
     31 C          62.2708   80.8225   12.2759 C.ar    1  UNL1        0.0592
     32 C          61.7656   81.6581   13.4146 C.ar    1  UNL1        0.1422
     33 F          61.1280   81.0003   14.6024 F       1  UNL1       -0.2041
     34 C          61.8980   83.1514   13.3656 C.ar    1  UNL1        0.0293
     35 C          65.2907   85.7974   15.0657 C.3     1  UNL1        0.0995
     36 C          64.7696   85.2115   16.3445 C.3     1  UNL1        0.0380
     37 C          63.8837   86.0286   17.2376 C.3     1  UNL1        0.1072
     38 C          62.3995   86.0336   17.0203 C.1     1  UNL1        0.0732
     39 N          60.9153   86.0386   16.8031 N.1     1  UNL1       -0.1959
@<TRIPOS>BOND
     1    25    26    1
     2    26    13    1
     3    13    14   ar
     4    14    15   ar
     5    15    16    1
     6    15    17   ar
     7    17    18   ar
     8    18    19    1
     9    18    20   ar
    10    20     1    1
    11     1     2   ar
    12     2     3   ar
    13     3     4   ar
    14     4     5   ar
    15     5     6   ar
    16     5     7    1
    17     7    35    1
    18    35    36    1
    19    36    37    1
    20    37    38    1
    21    38    39    3
    22     7     8   am
    23     8     9    2
    24     8    10    1
    25    10    11    1
    26    10    27    1
    27    27    28   ar
    28    28    29   ar
    29    29    30    1
    30    29    31   ar
    31    31    32   ar
    32    32    33    1
    33    32    34   ar
    34    10    12    1
    35    20    13   ar
    36     6     1   ar
    37    34    27   ar
    38    12     4    1
    39    16    21    1
    40    16    22    1
    41    19    23    1
    42    19    24    1
@<TRIPOS>MOLECULE
*****
 39 42 0 0 0
SMALL
GASTEIGER

@<TRIPOS>ATOM
      1 C          64.0297   89.0786   13.2668 C.ar    1  UNL1        0.0053
      2 C          64.2931   88.9693   14.7394 C.ar    1  UNL1        0.0033
      3 C          64.0501   87.6711   15.4504 C.ar    1  UNL1        0.0382
      4 C          63.5438   86.4822   14.6887 C.ar    1  UNL1        0.1529
      5 C          63.2804   86.5915   13.2161 C.ar    1  UNL1        0.0881
      6 C          63.5234   87.8897   12.5051 C.ar    1  UNL1        0.0181
      7 N          62.7740   85.4026   12.4545 N.am    1  UNL1       -0.2529
      8 C          62.5310   84.1043   13.1654 C.2     1  UNL1        0.2697
      9 O          62.0247   82.9154   12.4038 O.2     1  UNL1       -0.2704
     10 C          62.7944   83.9950   14.6381 C.3     1  UNL1        0.2199
     11 C          62.8940   83.4011   16.0119 C.3     1  UNL1        0.0579
     12 O          63.3008   85.1839   15.3998 O.3     1  UNL1       -0.4686
     13 C          63.4735   90.7243   11.3349 C.ar    1  UNL1        0.0645
     14 N          63.7164   92.0225   10.6238 N.ar    1  UNL1       -0.2183
     15 C          64.7586   92.9734   11.1336 C.ar    1  UNL1        0.2145
     16 N          65.0015   94.2716   10.4226 N.pl3   1  UNL1       -0.3274
     17 N          65.5578   92.6259   12.3545 N.ar    1  UNL1       -0.1995
     18 C          65.3148   91.3276   13.0656 C.ar    1  UNL1        0.1293
     19 N          66.1141   90.9802   14.2864 N.pl3   1  UNL1       -0.3425
     20 C          64.2727   90.3769   12.5557 C.ar    1  UNL1        0.0449
     21 H          64.4769   94.4996    9.6213 H       1  UNL1        0.1452
     22 H          65.6855   94.8956   10.7572 H       1  UNL1        0.1452
     23 H          66.7981   91.6042   14.6210 H       1  UNL1        0.1437
     24 H          65.9546   90.1281   14.7531 H       1  UNL1        0.1437
     25 C          61.8770   89.9399    9.4412 C.3     1  UNL1        0.0067
     26 C          62.4313   89.7735   10.8250 C.3     1  UNL1        0.0460
     27 C          62.3227   82.5999   14.3536 C.ar    1  UNL1        0.0264
     28 C          63.3088   81.5401   13.9607 C.ar    1  UNL1        0.0293
     29 C          62.8370   80.1449   13.6762 C.ar    1  UNL1        0.1422
     30 F          63.8233   79.0852   13.2832 F       1  UNL1       -0.2041
     31 C          61.3791   79.8095   13.7845 C.ar    1  UNL1        0.0592
     32 C          60.3929   80.8692   14.1774 C.ar    1  UNL1        0.1422
     33 F          58.9349   80.5338   14.2858 F       1  UNL1       -0.2041
     34 C          60.8646   82.2644   14.4620 C.ar    1  UNL1        0.0293
     35 C          62.5106   85.5119   10.9819 C.3     1  UNL1        0.0995
     36 C          63.4468   84.8678   10.0026 C.3     1  UNL1        0.0380
     37 C          64.3235   83.7317   10.4392 C.3     1  UNL1        0.1072
     38 C          63.8297   82.3193   10.3322 C.1     1  UNL1        0.0732
     39 N          63.3359   80.9070   10.2252 N.1     1  UNL1       -0.1959
@<TRIPOS>BOND
     1    25    26    1
     2    26    13    1
     3    13    14   ar
     4    14    15   ar
     5    15    16    1
     6    15    17   ar
     7    17    18   ar
     8    18    19    1
     9    18    20   ar
    10    20     1    1
    11     1     2   ar
    12     2     3   ar
    13     3     4   ar
    14     4     5   ar
    15     5     6   ar
    16     5     7    1
    17     7    35    1
    18    35    36    1
    19    36    37    1
    20    37    38    1
    21    38    39    3
    22     7     8   am
    23     8     9    2
    24     8    10    1
    25    10    11    1
    26    10    27    1
    27    27    28   ar
    28    28    29   ar
    29    29    30    1
    30    29    31   ar
    31    31    32   ar
    32    32    33    1
    33    32    34   ar
    34    10    12    1
    35    20    13   ar
    36     6     1   ar
    37    34    27   ar
    38    12     4    1
    39    16    21    1
    40    16    22    1
    41    19    23    1
    42    19    24    1
