@<TRIPOS>MOLECULE
*****
 25 27 0 0 0
SMALL
GASTEIGER

@<TRIPOS>ATOM
      1 C          61.9762   85.6159   10.5823 C.2     1  UNL1        0.2650
      2 O          62.7676   85.6140    9.3081 O.2     1  UNL1       -0.2684
      3 N          60.7544   86.4775   10.7050 N.am    1  UNL1       -0.3011
      4 H          60.2349   86.4787   11.5413 H       1  UNL1        0.1497
      5 C          62.7651   82.8345   13.1720 C.ar    1  UNL1        0.1239
      6 N          62.1682   83.2817   11.8705 N.ar    1  UNL1       -0.2260
      7 C          62.4065   84.7563   11.7338 C.ar    1  UNL1        0.1517
      8 C          63.1506   85.2205   12.9507 C.ar    1  UNL1        0.0872
      9 C          63.6551   86.5712   13.3642 C.ar    1  UNL1        0.0193
     10 C          64.3811   86.7342   14.6665 C.ar    1  UNL1        0.0031
     11 C          64.6027   85.5464   15.5554 C.ar    1  UNL1        0.0191
     12 C          64.0983   84.1957   15.1419 C.ar    1  UNL1        0.0811
     13 N          63.3723   84.0327   13.8395 N.ar    1  UNL1       -0.2921
     14 C          61.4612   80.7948   14.1153 C.3     1  UNL1        0.0079
     15 C          62.7563   81.4348   13.7112 C.3     1  UNL1        0.0573
     16 C          64.0425   80.6751   13.8465 C.3     1  UNL1        0.0079
     17 C          60.3241   87.3370    9.5535 C.3     1  UNL1        0.0747
     18 C          59.5569   86.7349    8.4138 C.3     1  UNL1        0.0369
     19 C          59.1266   87.5945    7.2623 C.3     1  UNL1        0.0739
     20 N          59.4635   89.0561    7.2505 N.3     1  UNL1       -0.2702
     21 C          60.2306   89.6583    8.3902 C.3     1  UNL1        0.0739
     22 C          60.6609   88.7987    9.5417 C.3     1  UNL1        0.0369
     23 C          59.0331   89.9157    6.0989 C.3     1  UNL1        0.1107
     24 C          60.0408   90.7571    5.3734 C.3     1  UNL1        0.2105
     25 F          59.6430   92.0933    4.8200 F       1  UNL1       -0.2328
@<TRIPOS>BOND
     1    14    15    1
     2    15    16    1
     3    15     5    1
     4     5     6   ar
     5     6     7   ar
     6     7     1    1
     7     1     2    2
     8     1     3   am
     9     3    17    1
    10    17    18    1
    11    18    19    1
    12    19    20    1
    13    20    23    1
    14    23    24    1
    15    24    25    1
    16    20    21    1
    17    21    22    1
    18     7     8   ar
    19     8     9   ar
    20     9    10   ar
    21    10    11   ar
    22    11    12   ar
    23    12    13   ar
    24    13     5   ar
    25    22    17    1
    26    13     8   ar
    27     3     4    1
@<TRIPOS>MOLECULE
*****
 25 27 0 0 0
SMALL
GASTEIGER

@<TRIPOS>ATOM
      1 C          62.8837   85.9795   12.3415 C.2     1  UNL1        0.2650
      2 O          61.7112   85.6306   11.4735 O.2     1  UNL1       -0.2684
      3 N          63.7509   84.8920   12.9033 N.am    1  UNL1       -0.3011
      4 H          64.5204   85.1210   13.4730 H       1  UNL1        0.1497
      5 C          63.9103   89.4279   13.7974 C.ar    1  UNL1        0.1239
      6 N          63.7752   87.9395   13.9254 N.ar    1  UNL1       -0.2260
      7 C          63.1891   87.4158   12.6478 C.ar    1  UNL1        0.1517
      8 C          62.9620   88.5805   11.7302 C.ar    1  UNL1        0.0872
      9 C          62.4069   88.6694   10.3396 C.ar    1  UNL1        0.0193
     10 C          62.2975   90.0018    9.6595 C.ar    1  UNL1        0.0031
     11 C          62.7433   91.2454   10.3700 C.ar    1  UNL1        0.0191
     12 C          63.2984   91.1565   11.7606 C.ar    1  UNL1        0.0811
     13 N          63.4077   89.8241   12.4407 N.ar    1  UNL1       -0.2921
     14 C          63.7007   90.5659   16.1236 C.3     1  UNL1        0.0079
     15 C          64.4527   90.3571   14.8426 C.3     1  UNL1        0.0573
     16 C          65.7471   91.0774   14.6068 C.3     1  UNL1        0.0079
     17 C          63.4455   83.4557   12.5969 C.3     1  UNL1        0.0747
     18 C          63.8976   82.8530   11.2999 C.3     1  UNL1        0.0369
     19 C          63.5922   81.4167   10.9936 C.3     1  UNL1        0.0739
     20 N          62.8347   80.5832   11.9843 N.3     1  UNL1       -0.2702
     21 C          62.3826   81.1859   13.2814 C.3     1  UNL1        0.0739
     22 C          62.6880   82.6222   13.5877 C.3     1  UNL1        0.0369
     23 C          62.5294   79.1469   11.6779 C.3     1  UNL1        0.1107
     24 C          62.8328   78.5889   10.3191 C.3     1  UNL1        0.2105
     25 F          62.2930   79.2642    9.0933 F       1  UNL1       -0.2328
@<TRIPOS>BOND
     1    14    15    1
     2    15    16    1
     3    15     5    1
     4     5     6   ar
     5     6     7   ar
     6     7     1    1
     7     1     2    2
     8     1     3   am
     9     3    17    1
    10    17    18    1
    11    18    19    1
    12    19    20    1
    13    20    23    1
    14    23    24    1
    15    24    25    1
    16    20    21    1
    17    21    22    1
    18     7     8   ar
    19     8     9   ar
    20     9    10   ar
    21    10    11   ar
    22    11    12   ar
    23    12    13   ar
    24    13     5   ar
    25    22    17    1
    26    13     8   ar
    27     3     4    1
@<TRIPOS>MOLECULE
*****
 25 27 0 0 0
SMALL
GASTEIGER

@<TRIPOS>ATOM
      1 C          63.7111   86.9328   13.9078 C.2     1  UNL1        0.2650
      2 O          63.9496   86.3016   15.2473 O.2     1  UNL1       -0.2684
      3 N          63.1727   86.1089   12.7757 N.am    1  UNL1       -0.3011
      4 H          63.0161   86.5231   11.8964 H       1  UNL1        0.1497
      5 C          64.8491   90.6416   14.0285 C.ar    1  UNL1        0.1239
      6 N          64.7972   89.2670   14.6266 N.ar    1  UNL1       -0.2260
      7 C          64.0108   88.3878   13.7000 C.ar    1  UNL1        0.1517
      8 C          63.5767   89.2190   12.5293 C.ar    1  UNL1        0.0872
      9 C          62.7766   88.8874   11.3046 C.ar    1  UNL1        0.0193
     10 C          62.4946   89.9488   10.2829 C.ar    1  UNL1        0.0031
     11 C          63.0127   91.3418   10.4859 C.ar    1  UNL1        0.0191
     12 C          63.8128   91.6734   11.7106 C.ar    1  UNL1        0.0811
     13 N          64.0948   90.6120   12.7323 N.ar    1  UNL1       -0.2921
     14 C          65.2590   92.2301   16.0432 C.3     1  UNL1        0.0079
     15 C          65.5349   91.8362   14.6223 C.3     1  UNL1        0.0573
     16 C          66.4966   92.6370   13.7954 C.3     1  UNL1        0.0079
     17 C          62.8730   84.6539   12.9834 C.3     1  UNL1        0.0747
     18 C          62.9694   83.6966   11.8326 C.3     1  UNL1        0.0369
     19 C          62.6697   82.2416   12.0403 C.3     1  UNL1        0.0739
     20 N          62.2736   81.7439   13.3988 N.3     1  UNL1       -0.2702
     21 C          62.1771   82.7012   14.5495 C.3     1  UNL1        0.0739
     22 C          62.4768   84.1562   14.3418 C.3     1  UNL1        0.0369
     23 C          61.9739   80.2889   13.6064 C.3     1  UNL1        0.1107
     24 C          60.6350   79.8668   14.1347 C.3     1  UNL1        0.2105
     25 F          59.4762   80.8181   14.0877 F       1  UNL1       -0.2328
@<TRIPOS>BOND
     1    14    15    1
     2    15    16    1
     3    15     5    1
     4     5     6   ar
     5     6     7   ar
     6     7     1    1
     7     1     2    2
     8     1     3   am
     9     3    17    1
    10    17    18    1
    11    18    19    1
    12    19    20    1
    13    20    23    1
    14    23    24    1
    15    24    25    1
    16    20    21    1
    17    21    22    1
    18     7     8   ar
    19     8     9   ar
    20     9    10   ar
    21    10    11   ar
    22    11    12   ar
    23    12    13   ar
    24    13     5   ar
    25    22    17    1
    26    13     8   ar
    27     3     4    1
@<TRIPOS>MOLECULE
*****
 25 27 0 0 0
SMALL
GASTEIGER

@<TRIPOS>ATOM
      1 C          63.4539   89.8073   12.0593 C.2     1  UNL1        0.2650
      2 O          63.2394   88.4405   12.6387 O.2     1  UNL1       -0.2684
      3 N          62.8572   90.1600   10.7289 N.am    1  UNL1       -0.3011
      4 H          62.9980   91.0570   10.3485 H       1  UNL1        0.1497
      5 C          65.3978   92.0029   14.6020 C.ar    1  UNL1        0.1239
      6 N          64.5551   90.8041   14.2816 N.ar    1  UNL1       -0.2260
      7 C          64.2650   90.8214   12.8100 C.ar    1  UNL1        0.1517
      8 C          64.9283   92.0310   12.2209 C.ar    1  UNL1        0.0872
      9 C          64.9852   92.5618   10.8192 C.ar    1  UNL1        0.0193
     10 C          65.7423   93.8228   10.5250 C.ar    1  UNL1        0.0031
     11 C          66.4424   94.5530   11.6325 C.ar    1  UNL1        0.0191
     12 C          66.3855   94.0222   13.0342 C.ar    1  UNL1        0.0811
     13 N          65.6284   92.7612   13.3285 N.ar    1  UNL1       -0.2921
     14 C          64.9757   92.4862   17.1196 C.3     1  UNL1        0.0079
     15 C          65.9184   92.3777   15.9579 C.3     1  UNL1        0.0573
     16 C          67.3817   92.6440   16.1521 C.3     1  UNL1        0.0079
     17 C          62.0461   89.1458    9.9781 C.3     1  UNL1        0.0747
     18 C          60.7737   89.5573    9.2986 C.3     1  UNL1        0.0369
     19 C          59.9626   88.5431    8.5479 C.3     1  UNL1        0.0739
     20 N          60.4239   87.1176    8.4767 N.3     1  UNL1       -0.2702
     21 C          61.6963   86.7061    9.1562 C.3     1  UNL1        0.0739
     22 C          62.5074   87.7203    9.9069 C.3     1  UNL1        0.0369
     23 C          59.6127   86.1035    7.7259 C.3     1  UNL1        0.1107
     24 C          60.2993   85.0537    6.9033 C.3     1  UNL1        0.2105
     25 F          61.7718   85.1548    6.6358 F       1  UNL1       -0.2328
@<TRIPOS>BOND
     1    14    15    1
     2    15    16    1
     3    15     5    1
     4     5     6   ar
     5     6     7   ar
     6     7     1    1
     7     1     2    2
     8     1     3   am
     9     3    17    1
    10    17    18    1
    11    18    19    1
    12    19    20    1
    13    20    23    1
    14    23    24    1
    15    24    25    1
    16    20    21    1
    17    21    22    1
    18     7     8   ar
    19     8     9   ar
    20     9    10   ar
    21    10    11   ar
    22    11    12   ar
    23    12    13   ar
    24    13     5   ar
    25    22    17    1
    26    13     8   ar
    27     3     4    1
@<TRIPOS>MOLECULE
*****
 25 27 0 0 0
SMALL
GASTEIGER

@<TRIPOS>ATOM
      1 C          62.8574   89.2361   11.1101 C.2     1  UNL1        0.2650
      2 O          62.5727   89.9707    9.8337 O.2     1  UNL1       -0.2684
      3 N          62.6312   87.7553   11.1897 N.am    1  UNL1       -0.3011
      4 H          62.8180   87.2732   12.0275 H       1  UNL1        0.1497
      5 C          63.7649   90.6742   14.5992 C.ar    1  UNL1        0.1239
      6 N          63.0385   89.6827   13.7393 N.ar    1  UNL1       -0.2260
      7 C          63.3682   89.9822   12.3070 C.ar    1  UNL1        0.1517
      8 C          64.2983   91.1588   12.2816 C.ar    1  UNL1        0.0872
      9 C          64.9536   91.8959   11.1515 C.ar    1  UNL1        0.0193
     10 C          65.8541   93.0608   11.4381 C.ar    1  UNL1        0.0031
     11 C          66.0993   93.4885   12.8547 C.ar    1  UNL1        0.0191
     12 C          65.4440   92.7513   13.9848 C.ar    1  UNL1        0.0811
     13 N          64.5435   91.5865   13.6982 N.ar    1  UNL1       -0.2921
     14 C          63.1650   89.5914   16.8834 C.3     1  UNL1        0.0079
     15 C          63.7206   90.7416   16.0970 C.3     1  UNL1        0.0573
     16 C          64.2318   91.9591   16.8085 C.3     1  UNL1        0.0079
     17 C          62.1204   87.0093    9.9929 C.3     1  UNL1        0.0747
     18 C          63.0313   86.0852    9.2403 C.3     1  UNL1        0.0369
     19 C          62.5205   85.3391    8.0435 C.3     1  UNL1        0.0739
     20 N          61.0989   85.5171    7.5992 N.3     1  UNL1       -0.2702
     21 C          60.1880   86.4412    8.3518 C.3     1  UNL1        0.0739
     22 C          60.6988   87.1873    9.5486 C.3     1  UNL1        0.0369
     23 C          60.5882   84.7710    6.4023 C.3     1  UNL1        0.1107
     24 C          61.5520   84.0986    5.4702 C.3     1  UNL1        0.2105
     25 F          61.3239   84.1524    3.9886 F       1  UNL1       -0.2328
@<TRIPOS>BOND
     1    14    15    1
     2    15    16    1
     3    15     5    1
     4     5     6   ar
     5     6     7   ar
     6     7     1    1
     7     1     2    2
     8     1     3   am
     9     3    17    1
    10    17    18    1
    11    18    19    1
    12    19    20    1
    13    20    23    1
    14    23    24    1
    15    24    25    1
    16    20    21    1
    17    21    22    1
    18     7     8   ar
    19     8     9   ar
    20     9    10   ar
    21    10    11   ar
    22    11    12   ar
    23    12    13   ar
    24    13     5   ar
    25    22    17    1
    26    13     8   ar
    27     3     4    1
@<TRIPOS>MOLECULE
*****
 25 27 0 0 0
SMALL
GASTEIGER

@<TRIPOS>ATOM
      1 C          63.0832   85.7856   13.6032 C.2     1  UNL1        0.2650
      2 O          62.8940   86.8250   12.5385 O.2     1  UNL1       -0.2684
      3 N          63.4978   86.1948   14.9856 N.am    1  UNL1       -0.3011
      4 H          63.6220   85.5126   15.6844 H       1  UNL1        0.1497
      5 C          62.1525   82.0206   13.4499 C.ar    1  UNL1        0.1239
      6 N          62.1449   83.3443   14.1554 N.ar    1  UNL1       -0.2260
      7 C          62.8579   84.3370   13.2857 C.ar    1  UNL1        0.1517
      8 C          63.3061   83.6267   12.0429 C.ar    1  UNL1        0.0872
      9 C          64.0550   84.0987   10.8319 C.ar    1  UNL1        0.0193
     10 C          64.3678   83.1389    9.7224 C.ar    1  UNL1        0.0031
     11 C          63.9318   81.7073    9.8239 C.ar    1  UNL1        0.0191
     12 C          63.1829   81.2354   11.0349 C.ar    1  UNL1        0.0811
     13 N          62.8701   82.1951   12.1444 N.ar    1  UNL1       -0.2921
     14 C          62.4180   79.5478   14.2018 C.3     1  UNL1        0.0079
     15 C          61.5484   80.7460   13.9604 C.3     1  UNL1        0.0573
     16 C          60.0748   80.6695   14.2296 C.3     1  UNL1        0.0079
     17 C          63.7230   87.6434   15.3030 C.3     1  UNL1        0.0747
     18 C          63.1243   88.2416   16.5414 C.3     1  UNL1        0.0369
     19 C          63.3496   89.6903   16.8589 C.3     1  UNL1        0.0739
     20 N          64.1735   90.5406   15.9380 N.3     1  UNL1       -0.2702
     21 C          64.7723   89.9423   14.6996 C.3     1  UNL1        0.0739
     22 C          64.5470   88.4937   14.3821 C.3     1  UNL1        0.0369
     23 C          64.3988   91.9892   16.2555 C.3     1  UNL1        0.1107
     24 C          65.6671   92.6634   15.8234 C.3     1  UNL1        0.2105
     25 F          66.8598   92.6713   16.7330 F       1  UNL1       -0.2328
@<TRIPOS>BOND
     1    14    15    1
     2    15    16    1
     3    15     5    1
     4     5     6   ar
     5     6     7   ar
     6     7     1    1
     7     1     2    2
     8     1     3   am
     9     3    17    1
    10    17    18    1
    11    18    19    1
    12    19    20    1
    13    20    23    1
    14    23    24    1
    15    24    25    1
    16    20    21    1
    17    21    22    1
    18     7     8   ar
    19     8     9   ar
    20     9    10   ar
    21    10    11   ar
    22    11    12   ar
    23    12    13   ar
    24    13     5   ar
    25    22    17    1
    26    13     8   ar
    27     3     4    1
@<TRIPOS>MOLECULE
*****
 25 27 0 0 0
SMALL
GASTEIGER

@<TRIPOS>ATOM
      1 C          57.3127   93.8491   -1.8177 C.2     1  UNL1        0.2650
      2 O          56.7672   92.8241   -0.8681 O.2     1  UNL1       -0.2684
      3 N          58.7056   94.3748   -1.6347 N.am    1  UNL1       -0.3011
      4 H          59.0637   95.0476   -2.2579 H       1  UNL1        0.1497
      5 C          55.6636   94.8545   -5.1844 C.ar    1  UNL1        0.1239
      6 N          56.7798   94.2174   -4.4110 N.ar    1  UNL1       -0.2260
      7 C          56.4653   94.3485   -2.9502 C.ar    1  UNL1        0.1517
      8 C          55.1548   95.0666   -2.8208 C.ar    1  UNL1        0.0872
      9 C          54.3486   95.4761   -1.6240 C.ar    1  UNL1        0.0193
     10 C          53.0469   96.1983   -1.8080 C.ar    1  UNL1        0.0031
     11 C          52.5514   96.5111   -3.1888 C.ar    1  UNL1        0.0191
     12 C          53.3575   96.1016   -4.3856 C.ar    1  UNL1        0.0811
     13 N          54.6592   95.3793   -4.2016 N.ar    1  UNL1       -0.2921
     14 C          55.5107   93.7013   -7.5076 C.3     1  UNL1        0.0079
     15 C          55.5683   94.9500   -6.6783 C.3     1  UNL1        0.0573
     16 C          55.5307   96.2941   -7.3431 C.3     1  UNL1        0.0079
     17 C          59.5530   93.8755   -0.5021 C.3     1  UNL1        0.0747
     18 C          59.5304   94.5834    0.8201 C.3     1  UNL1        0.0369
     19 C          60.3777   94.0840    1.9527 C.3     1  UNL1        0.0739
     20 N          61.2476   92.8768    1.7629 N.3     1  UNL1       -0.2702
     21 C          61.2702   92.1689    0.4407 C.3     1  UNL1        0.0739
     22 C          60.4228   92.6683   -0.6918 C.3     1  UNL1        0.0369
     23 C          62.0949   92.3775    2.8956 C.3     1  UNL1        0.1107
     24 C          63.3466   91.6017    2.6106 C.3     1  UNL1        0.2105
     25 F          63.6461   90.3512    3.3829 F       1  UNL1       -0.2328
@<TRIPOS>BOND
     1    14    15    1
     2    15    16    1
     3    15     5    1
     4     5     6   ar
     5     6     7   ar
     6     7     1    1
     7     1     2    2
     8     1     3   am
     9     3    17    1
    10    17    18    1
    11    18    19    1
    12    19    20    1
    13    20    23    1
    14    23    24    1
    15    24    25    1
    16    20    21    1
    17    21    22    1
    18     7     8   ar
    19     8     9   ar
    20     9    10   ar
    21    10    11   ar
    22    11    12   ar
    23    12    13   ar
    24    13     5   ar
    25    22    17    1
    26    13     8   ar
    27     3     4    1
@<TRIPOS>MOLECULE
*****
 25 27 0 0 0
SMALL
GASTEIGER

@<TRIPOS>ATOM
      1 C          45.8178   76.2087   17.7958 C.2     1  UNL1        0.2650
      2 O          47.1969   75.6558   18.0011 O.2     1  UNL1       -0.2684
      3 N          44.7465   75.3480   17.1943 N.am    1  UNL1       -0.3011
      4 H          43.8413   75.7109   17.0596 H       1  UNL1        0.1497
      5 C          44.9587   79.9832   18.0790 C.ar    1  UNL1        0.1239
      6 N          45.2039   78.7536   17.2557 N.ar    1  UNL1       -0.2260
      7 C          45.5098   77.6223   18.1919 C.ar    1  UNL1        0.1517
      8 C          45.4535   78.1528   19.5939 C.ar    1  UNL1        0.0872
      9 C          45.6685   77.4956   20.9250 C.ar    1  UNL1        0.0193
     10 C          45.5428   78.2976   22.1863 C.ar    1  UNL1        0.0031
     11 C          45.2022   79.7568   22.1165 C.ar    1  UNL1        0.0191
     12 C          44.9873   80.4139   20.7854 C.ar    1  UNL1        0.0811
     13 N          45.1129   79.6119   19.5241 N.ar    1  UNL1       -0.2921
     14 C          45.2648   81.8436   16.2913 C.3     1  UNL1        0.0079
     15 C          44.6188   81.3451   17.5501 C.3     1  UNL1        0.0573
     16 C          43.6331   82.2086   18.2798 C.3     1  UNL1        0.0079
     17 C          45.0545   73.9344   16.7982 C.3     1  UNL1        0.0747
     18 C          45.2079   72.8771   17.8511 C.3     1  UNL1        0.0369
     19 C          45.5159   71.4635   17.4550 C.3     1  UNL1        0.0739
     20 N          45.6705   71.1073   16.0061 N.3     1  UNL1       -0.2702
     21 C          45.5171   72.1646   14.9533 C.3     1  UNL1        0.0739
     22 C          45.2091   73.5782   15.3494 C.3     1  UNL1        0.0369
     23 C          45.9785   69.6936   15.6101 C.3     1  UNL1        0.1107
     24 C          46.4875   69.3949   14.2311 C.3     1  UNL1        0.2105
     25 F          46.5005   67.9826   13.7260 F       1  UNL1       -0.2328
@<TRIPOS>BOND
     1    14    15    1
     2    15    16    1
     3    15     5    1
     4     5     6   ar
     5     6     7   ar
     6     7     1    1
     7     1     2    2
     8     1     3   am
     9     3    17    1
    10    17    18    1
    11    18    19    1
    12    19    20    1
    13    20    23    1
    14    23    24    1
    15    24    25    1
    16    20    21    1
    17    21    22    1
    18     7     8   ar
    19     8     9   ar
    20     9    10   ar
    21    10    11   ar
    22    11    12   ar
    23    12    13   ar
    24    13     5   ar
    25    22    17    1
    26    13     8   ar
    27     3     4    1
@<TRIPOS>MOLECULE
*****
 25 27 0 0 0
SMALL
GASTEIGER

@<TRIPOS>ATOM
      1 C          63.6125   89.2970   12.6689 C.2     1  UNL1        0.2650
      2 O          63.9633   88.7147   14.0060 O.2     1  UNL1       -0.2684
      3 N          64.1360   90.6474   12.2783 N.am    1  UNL1       -0.3011
      4 H          63.9058   91.0296   11.4007 H       1  UNL1        0.1497
      5 C          61.1379   87.9916    9.9786 C.ar    1  UNL1        0.1239
      6 N          61.8121   89.1201   10.7011 N.ar    1  UNL1       -0.2260
      7 C          62.7381   88.5291   11.7225 C.ar    1  UNL1        0.1517
      8 C          62.6363   87.0353   11.6312 C.ar    1  UNL1        0.0872
      9 C          63.3164   85.9347   12.3903 C.ar    1  UNL1        0.0193
     10 C          63.0075   84.5020   12.0715 C.ar    1  UNL1        0.0031
     11 C          62.0185   84.1697   10.9938 C.ar    1  UNL1        0.0191
     12 C          61.3384   85.2703   10.2347 C.ar    1  UNL1        0.0811
     13 N          61.6473   86.7031   10.5535 N.ar    1  UNL1       -0.2921
     14 C          59.8543   89.4739    8.2741 C.3     1  UNL1        0.0079
     15 C          60.1311   88.1276    8.8751 C.3     1  UNL1        0.0573
     16 C          59.4012   86.9175    8.3724 C.3     1  UNL1        0.0079
     17 C          65.0104   91.4153   13.2248 C.3     1  UNL1        0.0747
     18 C          66.1552   92.2278   12.6964 C.3     1  UNL1        0.0369
     19 C          67.0296   92.9957   13.6429 C.3     1  UNL1        0.0739
     20 N          66.7591   92.9511   15.1176 N.3     1  UNL1       -0.2702
     21 C          65.6142   92.1387   15.6459 C.3     1  UNL1        0.0739
     22 C          64.7399   91.3707   14.6995 C.3     1  UNL1        0.0369
     23 C          67.6335   93.7191   16.0640 C.3     1  UNL1        0.1107
     24 C          69.1167   93.4956   16.0639 C.3     1  UNL1        0.2105
     25 F          70.0460   94.6290   15.7449 F       1  UNL1       -0.2328
@<TRIPOS>BOND
     1    14    15    1
     2    15    16    1
     3    15     5    1
     4     5     6   ar
     5     6     7   ar
     6     7     1    1
     7     1     2    2
     8     1     3   am
     9     3    17    1
    10    17    18    1
    11    18    19    1
    12    19    20    1
    13    20    23    1
    14    23    24    1
    15    24    25    1
    16    20    21    1
    17    21    22    1
    18     7     8   ar
    19     8     9   ar
    20     9    10   ar
    21    10    11   ar
    22    11    12   ar
    23    12    13   ar
    24    13     5   ar
    25    22    17    1
    26    13     8   ar
    27     3     4    1
