@<TRIPOS>MOLECULE
*****
 33 36 0 0 0
SMALL
GASTEIGER

@<TRIPOS>ATOM
      1 C          64.4871   91.6496   13.4874 C.ar    1  UNL1        0.1432
      2 C          65.3806   92.4735   12.6084 C.ar    1  UNL1        0.0384
      3 C          66.7011   92.9605   13.1272 C.ar    1  UNL1        0.0215
      4 C          67.1280   92.6236   14.5252 C.ar    1  UNL1        0.1061
      5 C          66.2344   91.7997   15.4042 C.ar    1  UNL1        0.0259
      6 C          64.9139   91.3127   14.8854 C.ar    1  UNL1        0.0888
      7 C          64.0204   90.4888   15.7645 C.2     1  UNL1        0.2525
      8 O          63.3315   91.1216   16.9370 O.2     1  UNL1       -0.2698
      9 N          63.8159   89.0320   15.4711 N.am    1  UNL1       -0.2660
     10 C          64.4348   88.2650   14.3403 C.3     1  UNL1        0.1236
     11 C          63.9579   86.8455   14.4274 C.ar    1  UNL1        0.0338
     12 C          64.0457   85.4942   13.7823 C.ar    1  UNL1        0.0990
     13 N          63.1863   84.5486   14.5681 N.ar    1  UNL1       -0.2287
     14 N          62.5674   85.3157   15.6989 N.ar    1  UNL1       -0.1680
     15 C          63.0443   86.7352   15.6119 C.ar    1  UNL1        0.0981
     16 C          62.9565   88.0866   16.2569 C.3     1  UNL1        0.1414
     17 C          62.9818   83.0920   14.2747 C.ar    1  UNL1        0.0828
     18 C          64.1242   82.2607   13.7709 C.ar    1  UNL1        0.0191
     19 C          63.9197   80.8040   13.4775 C.ar    1  UNL1        0.0015
     20 C          62.5727   80.1785   13.6879 C.ar    1  UNL1        0.0001
     21 C          61.4302   81.0098   14.1918 C.ar    1  UNL1        0.0015
     22 C          61.6347   82.4664   14.4852 C.ar    1  UNL1        0.0191
     23 S          68.4484   93.1106   15.0440 S.O2    1  UNL1        0.0105
     24 C          69.7689   93.5977   15.5629 C.3     1  UNL1        0.1816
     25 O          69.1515   92.3870   13.9340 O.2     1  UNL1       -0.1686
     26 O          67.7453   93.8343   16.1541 O.2     1  UNL1       -0.1686
     27 O          63.1666   91.1626   12.9686 O.3     1  UNL1       -0.4702
     28 C          63.5204   91.4742   10.4136 C.3     1  UNL1        0.0566
     29 C          63.0593   90.6353   11.5684 C.3     1  UNL1        0.2599
     30 C          62.4908   89.2691   11.3231 C.3     1  UNL1        0.4340
     31 F          61.9223   87.9028   11.0779 F       1  UNL1       -0.1664
     32 F          61.8683   89.2830   12.6878 F       1  UNL1       -0.1664
     33 F          63.1132   89.2550    9.9584 F       1  UNL1       -0.1664
@<TRIPOS>BOND
     1    29    28    1
     2    29    27    1
     3    27     1    1
     4     1     2   ar
     5     2     3   ar
     6     3     4   ar
     7     4    23    1
     8    23    24    1
     9    23    25    2
    10    23    26    2
    11     4     5   ar
    12     5     6   ar
    13     6     7    1
    14     7     8    2
    15     7     9   am
    16     9    10    1
    17    10    11    1
    18    11    12   ar
    19    12    13   ar
    20    13    17    1
    21    17    18   ar
    22    18    19   ar
    23    19    20   ar
    24    20    21   ar
    25    21    22   ar
    26    13    14   ar
    27    14    15   ar
    28    15    16    1
    29    29    30    1
    30    30    31    1
    31    30    32    1
    32    30    33    1
    33     6     1   ar
    34    16     9    1
    35    15    11   ar
    36    22    17   ar
@<TRIPOS>MOLECULE
*****
 33 36 0 0 0
SMALL
GASTEIGER

@<TRIPOS>ATOM
      1 C          63.9099   91.1996   13.2225 C.ar    1  UNL1        0.1432
      2 C          64.9839   92.0545   13.8273 C.ar    1  UNL1        0.0384
      3 C          65.8714   92.8804   12.9440 C.ar    1  UNL1        0.0215
      4 C          65.6851   92.8513   11.4559 C.ar    1  UNL1        0.1061
      5 C          64.6111   91.9963   10.8511 C.ar    1  UNL1        0.0259
      6 C          63.7235   91.1705   11.7344 C.ar    1  UNL1        0.0888
      7 C          62.6496   90.3156   11.1296 C.2     1  UNL1        0.2525
      8 O          61.6148   90.9320   10.2356 O.2     1  UNL1       -0.2698
      9 N          62.6105   88.8442   11.4187 N.am    1  UNL1       -0.2660
     10 C          63.5725   88.0908   12.2887 C.3     1  UNL1        0.1236
     11 C          63.1590   86.6489   12.2963 C.ar    1  UNL1        0.0338
     12 C          63.4980   85.2921   12.8387 C.ar    1  UNL1        0.0990
     13 N          62.4900   84.3158   12.3085 N.ar    1  UNL1       -0.2287
     14 N          61.5280   85.0694   11.4385 N.ar    1  UNL1       -0.1680
     15 C          61.9415   86.5112   11.4310 C.ar    1  UNL1        0.0981
     16 C          61.6025   87.8681   10.8886 C.3     1  UNL1        0.1414
     17 C          62.4509   82.8446   12.5976 C.ar    1  UNL1        0.0828
     18 C          62.8884   81.8627   11.5514 C.ar    1  UNL1        0.0191
     19 C          62.8493   80.3913   11.8405 C.ar    1  UNL1        0.0015
     20 C          62.3726   79.9018   13.1759 C.ar    1  UNL1        0.0001
     21 C          61.9351   80.8837   14.2221 C.ar    1  UNL1        0.0015
     22 C          61.9742   82.3550   13.9330 C.ar    1  UNL1        0.0191
     23 S          66.5726   93.6772   10.5726 S.O2    1  UNL1        0.0105
     24 C          67.4602   94.5030    9.6893 C.3     1  UNL1        0.1816
     25 O          67.6314   92.6171   10.6454 O.2     1  UNL1       -0.1686
     26 O          65.5138   94.7372   10.4999 O.2     1  UNL1       -0.1686
     27 O          63.0224   90.3738   14.1058 O.3     1  UNL1       -0.4702
     28 C          63.7814   91.0995   16.4822 C.3     1  UNL1        0.0566
     29 C          63.4677   90.0165   15.4929 C.3     1  UNL1        0.2599
     30 C          63.5993   88.5762   15.8906 C.3     1  UNL1        0.4340
     31 F          63.7311   87.1359   16.2882 F       1  UNL1       -0.1664
     32 F          64.7866   88.4346   14.9848 F       1  UNL1       -0.1664
     33 F          62.4122   88.7177   16.7965 F       1  UNL1       -0.1664
@<TRIPOS>BOND
     1    29    28    1
     2    29    27    1
     3    27     1    1
     4     1     2   ar
     5     2     3   ar
     6     3     4   ar
     7     4    23    1
     8    23    24    1
     9    23    25    2
    10    23    26    2
    11     4     5   ar
    12     5     6   ar
    13     6     7    1
    14     7     8    2
    15     7     9   am
    16     9    10    1
    17    10    11    1
    18    11    12   ar
    19    12    13   ar
    20    13    17    1
    21    17    18   ar
    22    18    19   ar
    23    19    20   ar
    24    20    21   ar
    25    21    22   ar
    26    13    14   ar
    27    14    15   ar
    28    15    16    1
    29    29    30    1
    30    30    31    1
    31    30    32    1
    32    30    33    1
    33     6     1   ar
    34    16     9    1
    35    15    11   ar
    36    22    17   ar
@<TRIPOS>MOLECULE
*****
 33 36 0 0 0
SMALL
GASTEIGER

@<TRIPOS>ATOM
      1 C          63.4787   90.3596   13.5923 C.ar    1  UNL1        0.1432
      2 C          63.9803   91.5070   12.7668 C.ar    1  UNL1        0.0384
      3 C          65.3277   92.1023   13.0500 C.ar    1  UNL1        0.0215
      4 C          66.1735   91.5500   14.1588 C.ar    1  UNL1        0.1061
      5 C          65.6718   90.4025   14.9845 C.ar    1  UNL1        0.0259
      6 C          64.3245   89.8072   14.7012 C.ar    1  UNL1        0.0888
      7 C          63.8229   88.6598   15.5269 C.2     1  UNL1        0.2525
      8 O          63.4813   88.8688   16.9724 O.2     1  UNL1       -0.2698
      9 N          63.6630   87.3032   14.9070 N.am    1  UNL1       -0.2660
     10 C          63.9628   86.9442   13.4818 C.3     1  UNL1        0.1236
     11 C          63.6602   85.4867   13.2975 C.ar    1  UNL1        0.0338
     12 C          63.6585   84.3639   12.3028 C.ar    1  UNL1        0.0990
     13 N          63.1707   83.1282   12.9993 N.ar    1  UNL1       -0.2287
     14 N          62.8709   83.4873   14.4246 N.ar    1  UNL1       -0.1680
     15 C          63.1734   84.9448   14.6088 C.ar    1  UNL1        0.0981
     16 C          63.1751   86.0676   15.6036 C.3     1  UNL1        0.1414
     17 C          63.0107   81.7717   12.3795 C.ar    1  UNL1        0.0828
     18 C          62.5636   80.6117   13.2187 C.ar    1  UNL1        0.0191
     19 C          62.4036   79.2551   12.5989 C.ar    1  UNL1        0.0015
     20 C          62.6908   79.0586   11.1398 C.ar    1  UNL1        0.0001
     21 C          63.1380   80.2188   10.3005 C.ar    1  UNL1        0.0015
     22 C          63.2980   81.5752   10.9203 C.ar    1  UNL1        0.0191
     23 S          67.5209   92.1452   14.4420 S.O2    1  UNL1        0.0105
     24 C          68.8683   92.7405   14.7253 C.3     1  UNL1        0.1816
     25 O          67.1860   92.2083   15.9028 O.2     1  UNL1       -0.1686
     26 O          67.8558   92.0822   12.9812 O.2     1  UNL1       -0.1686
     27 O          62.1313   89.7643   13.3091 O.3     1  UNL1       -0.4702
     28 C          62.4580   88.9541   10.8624 C.3     1  UNL1        0.0566
     29 C          61.6368   89.6657   11.8964 C.3     1  UNL1        0.2599
     30 C          60.3212   90.2787   11.5178 C.3     1  UNL1        0.4340
     31 F          59.0056   90.8917   11.1393 F       1  UNL1       -0.1664
     32 F          59.7048   89.7291   12.7700 F       1  UNL1       -0.1664
     33 F          60.9376   90.8283   10.2656 F       1  UNL1       -0.1664
@<TRIPOS>BOND
     1    29    28    1
     2    29    27    1
     3    27     1    1
     4     1     2   ar
     5     2     3   ar
     6     3     4   ar
     7     4    23    1
     8    23    24    1
     9    23    25    2
    10    23    26    2
    11     4     5   ar
    12     5     6   ar
    13     6     7    1
    14     7     8    2
    15     7     9   am
    16     9    10    1
    17    10    11    1
    18    11    12   ar
    19    12    13   ar
    20    13    17    1
    21    17    18   ar
    22    18    19   ar
    23    19    20   ar
    24    20    21   ar
    25    21    22   ar
    26    13    14   ar
    27    14    15   ar
    28    15    16    1
    29    29    30    1
    30    30    31    1
    31    30    32    1
    32    30    33    1
    33     6     1   ar
    34    16     9    1
    35    15    11   ar
    36    22    17   ar
@<TRIPOS>MOLECULE
*****
 33 36 0 0 0
SMALL
GASTEIGER

@<TRIPOS>ATOM
      1 C          63.8375   84.9253   13.5271 C.ar    1  UNL1        0.1432
      2 C          64.5665   85.4834   14.7132 C.ar    1  UNL1        0.0384
      3 C          64.5978   86.9650   14.9454 C.ar    1  UNL1        0.0215
      4 C          63.9000   87.8886   13.9914 C.ar    1  UNL1        0.1061
      5 C          63.1709   87.3304   12.8051 C.ar    1  UNL1        0.0259
      6 C          63.1397   85.8488   12.5730 C.ar    1  UNL1        0.0888
      7 C          62.4107   85.2908   11.3868 C.2     1  UNL1        0.2525
      8 O          62.3265   83.8064   11.1884 O.2     1  UNL1       -0.2698
      9 N          61.7658   86.2172   10.3989 N.am    1  UNL1       -0.2660
     10 C          61.7666   87.7158   10.4649 C.3     1  UNL1        0.1236
     11 C          61.0082   88.2324    9.2783 C.ar    1  UNL1        0.0338
     12 C          60.5400   89.4778    8.5858 C.ar    1  UNL1        0.0990
     13 N          59.7811   89.0684    7.3584 N.ar    1  UNL1       -0.2287
     14 N          59.7803   87.5697    7.2924 N.ar    1  UNL1       -0.1680
     15 C          60.5387   87.0531    8.4790 C.ar    1  UNL1        0.0981
     16 C          61.0069   85.8077    9.1715 C.3     1  UNL1        0.1414
     17 C          59.1362   89.9947    6.3706 C.ar    1  UNL1        0.0828
     18 C          57.6438   90.0104    6.2207 C.ar    1  UNL1        0.0191
     19 C          56.9989   90.9368    5.2328 C.ar    1  UNL1        0.0015
     20 C          57.8464   91.8475    4.3947 C.ar    1  UNL1        0.0001
     21 C          59.3389   91.8318    4.5446 C.ar    1  UNL1        0.0015
     22 C          59.9838   90.9054    5.5324 C.ar    1  UNL1        0.0191
     23 S          63.9312   89.3702   14.2236 S.O2    1  UNL1        0.0105
     24 C          63.9625   90.8517   14.4557 C.3     1  UNL1        0.1816
     25 O          63.9103   89.6028   12.7419 O.2     1  UNL1       -0.1686
     26 O          63.9521   89.1374   15.7053 O.2     1  UNL1       -0.1686
     27 O          63.8063   83.4438   13.2949 O.3     1  UNL1       -0.4702
     28 C          62.1064   83.1511   15.2378 C.3     1  UNL1        0.0566
     29 C          62.8452   82.5845   14.0617 C.3     1  UNL1        0.2599
     30 C          62.6229   81.1587   13.6524 C.3     1  UNL1        0.4340
     31 F          62.4007   79.7329   13.2430 F       1  UNL1       -0.1664
     32 F          63.9965   81.1172   13.0510 F       1  UNL1       -0.1664
     33 F          61.2493   81.2001   14.2536 F       1  UNL1       -0.1664
@<TRIPOS>BOND
     1    29    28    1
     2    29    27    1
     3    27     1    1
     4     1     2   ar
     5     2     3   ar
     6     3     4   ar
     7     4    23    1
     8    23    24    1
     9    23    25    2
    10    23    26    2
    11     4     5   ar
    12     5     6   ar
    13     6     7    1
    14     7     8    2
    15     7     9   am
    16     9    10    1
    17    10    11    1
    18    11    12   ar
    19    12    13   ar
    20    13    17    1
    21    17    18   ar
    22    18    19   ar
    23    19    20   ar
    24    20    21   ar
    25    21    22   ar
    26    13    14   ar
    27    14    15   ar
    28    15    16    1
    29    29    30    1
    30    30    31    1
    31    30    32    1
    32    30    33    1
    33     6     1   ar
    34    16     9    1
    35    15    11   ar
    36    22    17   ar
@<TRIPOS>MOLECULE
*****
 33 36 0 0 0
SMALL
GASTEIGER

@<TRIPOS>ATOM
      1 C          60.2531   87.1012    9.1687 C.ar    1  UNL1        0.1432
      2 C          60.2235   86.7464    7.7116 C.ar    1  UNL1        0.0384
      3 C          59.8582   87.7859    6.6938 C.ar    1  UNL1        0.0215
      4 C          59.5225   89.1803    7.1330 C.ar    1  UNL1        0.1061
      5 C          59.5521   89.5351    8.5902 C.ar    1  UNL1        0.0259
      6 C          59.9173   88.4956    9.6081 C.ar    1  UNL1        0.0888
      7 C          59.9469   88.8505   11.0652 C.2     1  UNL1        0.2525
      8 O          58.7402   88.6045   11.9216 O.2     1  UNL1       -0.2698
      9 N          61.1830   89.4514   11.6658 N.am    1  UNL1       -0.2660
     10 C          62.4594   89.7538   10.9383 C.3     1  UNL1        0.1236
     11 C          63.4250   90.3447   11.9223 C.ar    1  UNL1        0.0338
     12 C          64.8107   90.8968   12.0808 C.ar    1  UNL1        0.0990
     13 N          64.9875   91.3009   13.5146 N.ar    1  UNL1       -0.2287
     14 N          63.7110   90.9985   14.2421 N.ar    1  UNL1       -0.1680
     15 C          62.7454   90.4076   13.2581 C.ar    1  UNL1        0.0981
     16 C          61.3598   89.8555   13.0995 C.3     1  UNL1        0.1414
     17 C          66.2236   91.9018   14.1152 C.ar    1  UNL1        0.0828
     18 C          66.1593   92.5610   15.4610 C.ar    1  UNL1        0.0191
     19 C          67.3954   93.1620   16.0618 C.ar    1  UNL1        0.0015
     20 C          68.6959   93.1037   15.3166 C.ar    1  UNL1        0.0001
     21 C          68.7603   92.4444   13.9707 C.ar    1  UNL1        0.0015
     22 C          67.5242   91.8435   13.3701 C.ar    1  UNL1        0.0191
     23 S          59.1572   90.2198    6.1152 S.O2    1  UNL1        0.0105
     24 C          58.7920   91.2593    5.0974 C.3     1  UNL1        0.1816
     25 O          60.6120   90.4738    5.8525 O.2     1  UNL1       -0.1686
     26 O          57.7024   89.9657    6.3780 O.2     1  UNL1       -0.1686
     27 O          60.6183   86.0617   10.1865 O.3     1  UNL1       -0.4702
     28 C          62.8734   85.4481    9.0515 C.3     1  UNL1        0.0566
     29 C          62.0340   85.5762   10.2880 C.3     1  UNL1        0.2599
     30 C          62.6101   85.2190   11.6261 C.3     1  UNL1        0.4340
     31 F          63.1863   84.8618   12.9641 F       1  UNL1       -0.1664
     32 F          62.8592   86.6713   11.9067 F       1  UNL1       -0.1664
     33 F          62.3611   83.7666   11.3456 F       1  UNL1       -0.1664
@<TRIPOS>BOND
     1    29    28    1
     2    29    27    1
     3    27     1    1
     4     1     2   ar
     5     2     3   ar
     6     3     4   ar
     7     4    23    1
     8    23    24    1
     9    23    25    2
    10    23    26    2
    11     4     5   ar
    12     5     6   ar
    13     6     7    1
    14     7     8    2
    15     7     9   am
    16     9    10    1
    17    10    11    1
    18    11    12   ar
    19    12    13   ar
    20    13    17    1
    21    17    18   ar
    22    18    19   ar
    23    19    20   ar
    24    20    21   ar
    25    21    22   ar
    26    13    14   ar
    27    14    15   ar
    28    15    16    1
    29    29    30    1
    30    30    31    1
    31    30    32    1
    32    30    33    1
    33     6     1   ar
    34    16     9    1
    35    15    11   ar
    36    22    17   ar
@<TRIPOS>MOLECULE
*****
 33 36 0 0 0
SMALL
GASTEIGER

@<TRIPOS>ATOM
      1 C          62.7350   94.7858    0.5591 C.ar    1  UNL1        0.1432
      2 C          64.2129   94.7424    0.3064 C.ar    1  UNL1        0.0384
      3 C          64.7682   95.2599   -0.9873 C.ar    1  UNL1        0.0215
      4 C          63.8456   95.8208   -2.0286 C.ar    1  UNL1        0.1061
      5 C          62.3676   95.8642   -1.7759 C.ar    1  UNL1        0.0259
      6 C          61.8123   95.3467   -0.4821 C.ar    1  UNL1        0.0888
      7 C          60.3344   95.3902   -0.2296 C.2     1  UNL1        0.2525
      8 O          59.7811   96.2945    0.8316 O.2     1  UNL1       -0.2698
      9 N          59.4097   94.5292   -1.0381 N.am    1  UNL1       -0.2660
     10 C          59.8149   93.5805   -2.1270 C.3     1  UNL1        0.1236
     11 C          58.5731   92.9308   -2.6616 C.ar    1  UNL1        0.0338
     12 C          58.0561   91.9429   -3.6649 C.ar    1  UNL1        0.0990
     13 N          56.5637   91.8796   -3.5266 N.ar    1  UNL1       -0.2287
     14 N          56.1585   92.8284   -2.4377 N.ar    1  UNL1       -0.1680
     15 C          57.4004   93.4780   -1.9031 C.ar    1  UNL1        0.0981
     16 C          57.9174   94.4659   -0.8997 C.3     1  UNL1        0.1414
     17 C          55.6391   91.0187   -4.3351 C.ar    1  UNL1        0.0828
     18 C          55.4206   91.3127   -5.7897 C.ar    1  UNL1        0.0191
     19 C          54.4959   90.4518   -6.5983 C.ar    1  UNL1        0.0015
     20 C          53.7897   89.2969   -5.9523 C.ar    1  UNL1        0.0001
     21 C          54.0082   89.0028   -4.4976 C.ar    1  UNL1        0.0015
     22 C          54.9328   89.8637   -3.6891 C.ar    1  UNL1        0.0191
     23 S          64.4009   96.3383   -3.3223 S.O2    1  UNL1        0.0105
     24 C          64.9561   96.8558   -4.6161 C.3     1  UNL1        0.1816
     25 O          65.7486   96.4927   -2.6822 O.2     1  UNL1       -0.1686
     26 O          63.0530   96.1839   -3.9625 O.2     1  UNL1       -0.1686
     27 O          62.1797   94.2684    1.8528 O.3     1  UNL1       -0.4702
     28 C          60.6488   92.2415    1.3069 C.3     1  UNL1        0.0566
     29 C          61.8511   92.8121    1.9989 C.3     1  UNL1        0.2599
     30 C          62.7248   91.9265    2.8369 C.3     1  UNL1        0.4340
     31 F          63.5986   91.0410    3.6748 F       1  UNL1       -0.1664
     32 F          63.8178   92.0384    1.8156 F       1  UNL1       -0.1664
     33 F          61.6320   91.8146    3.8582 F       1  UNL1       -0.1664
@<TRIPOS>BOND
     1    29    28    1
     2    29    27    1
     3    27     1    1
     4     1     2   ar
     5     2     3   ar
     6     3     4   ar
     7     4    23    1
     8    23    24    1
     9    23    25    2
    10    23    26    2
    11     4     5   ar
    12     5     6   ar
    13     6     7    1
    14     7     8    2
    15     7     9   am
    16     9    10    1
    17    10    11    1
    18    11    12   ar
    19    12    13   ar
    20    13    17    1
    21    17    18   ar
    22    18    19   ar
    23    19    20   ar
    24    20    21   ar
    25    21    22   ar
    26    13    14   ar
    27    14    15   ar
    28    15    16    1
    29    29    30    1
    30    30    31    1
    31    30    32    1
    32    30    33    1
    33     6     1   ar
    34    16     9    1
    35    15    11   ar
    36    22    17   ar
@<TRIPOS>MOLECULE
*****
 33 36 0 0 0
SMALL
GASTEIGER

@<TRIPOS>ATOM
      1 C          64.2852   90.3618   13.1417 C.ar    1  UNL1        0.1432
      2 C          63.9308   91.5024   12.2343 C.ar    1  UNL1        0.0384
      3 C          62.8442   91.3389   11.2132 C.ar    1  UNL1        0.0215
      4 C          62.1120   90.0347   11.0995 C.ar    1  UNL1        0.1061
      5 C          62.4664   88.8940   12.0070 C.ar    1  UNL1        0.0259
      6 C          63.5529   89.0576   13.0281 C.ar    1  UNL1        0.0888
      7 C          63.9073   87.9169   13.9354 C.2     1  UNL1        0.2525
      8 O          64.4518   88.1902   15.3061 O.2     1  UNL1       -0.2698
      9 N          63.7170   86.5030   13.4721 N.am    1  UNL1       -0.2660
     10 C          63.1854   86.0771   12.1357 C.3     1  UNL1        0.1236
     11 C          63.1649   84.5776   12.1015 C.ar    1  UNL1        0.0338
     12 C          62.8236   83.3876   11.2545 C.ar    1  UNL1        0.0990
     13 N          63.1317   82.1513   12.0462 N.ar    1  UNL1       -0.2287
     14 N          63.6633   82.5773   13.3826 N.ar    1  UNL1       -0.1680
     15 C          63.6839   84.0768   13.4168 C.ar    1  UNL1        0.0981
     16 C          64.0251   85.2668   14.2639 C.3     1  UNL1        0.1414
     17 C          62.9415   80.7375   11.5829 C.ar    1  UNL1        0.0828
     18 C          62.6286   79.6583   12.5766 C.ar    1  UNL1        0.0191
     19 C          62.4384   78.2443   12.1133 C.ar    1  UNL1        0.0015
     20 C          62.5611   77.9096   10.6563 C.ar    1  UNL1        0.0001
     21 C          62.8740   78.9889    9.6626 C.ar    1  UNL1        0.0015
     22 C          63.0642   80.4027   10.1258 C.ar    1  UNL1        0.0191
     23 S          61.0254   89.8712   10.0784 S.O2    1  UNL1        0.0105
     24 C          59.9388   89.7077    9.0574 C.3     1  UNL1        0.1816
     25 O          61.8025   88.7650    9.4286 O.2     1  UNL1       -0.1686
     26 O          60.2482   90.9775   10.7284 O.2     1  UNL1       -0.1686
     27 O          65.3717   90.5253   14.1628 O.3     1  UNL1       -0.4702
     28 C          64.0857   91.5638   16.1672 C.3     1  UNL1        0.0566
     29 C          65.2516   91.5790   15.2236 C.3     1  UNL1        0.2599
     30 C          66.2975   92.6478   15.3408 C.3     1  UNL1        0.4340
     31 F          67.3434   93.7166   15.4580 F       1  UNL1       -0.1664
     32 F          66.5768   92.5357   13.8713 F       1  UNL1       -0.1664
     33 F          66.0183   92.7599   16.8103 F       1  UNL1       -0.1664
@<TRIPOS>BOND
     1    29    28    1
     2    29    27    1
     3    27     1    1
     4     1     2   ar
     5     2     3   ar
     6     3     4   ar
     7     4    23    1
     8    23    24    1
     9    23    25    2
    10    23    26    2
    11     4     5   ar
    12     5     6   ar
    13     6     7    1
    14     7     8    2
    15     7     9   am
    16     9    10    1
    17    10    11    1
    18    11    12   ar
    19    12    13   ar
    20    13    17    1
    21    17    18   ar
    22    18    19   ar
    23    19    20   ar
    24    20    21   ar
    25    21    22   ar
    26    13    14   ar
    27    14    15   ar
    28    15    16    1
    29    29    30    1
    30    30    31    1
    31    30    32    1
    32    30    33    1
    33     6     1   ar
    34    16     9    1
    35    15    11   ar
    36    22    17   ar
