@<TRIPOS>MOLECULE
*****
 31 34 0 0 0
SMALL
GASTEIGER

@<TRIPOS>ATOM
      1 C          66.2978   92.5802   12.3274 C.ar    1  UNL1        0.0528
      2 C          64.8959   92.0467   12.3245 C.ar    1  UNL1        0.0166
      3 C          64.4546   91.0918   13.3938 C.ar    1  UNL1        0.0483
      4 C          65.4153   90.6703   14.4660 C.ar    1  UNL1        0.0169
      5 C          66.8173   91.2039   14.4688 C.ar    1  UNL1        0.0307
      6 C          67.2585   92.1588   13.3995 C.ar    1  UNL1        0.1402
      7 F          68.6603   92.6924   13.4024 F       1  UNL1       -0.2044
      8 C          67.2356   92.2449   10.6761 C.3     1  UNL1        0.0607
      9 C          66.7390   93.5352   11.2581 C.3     1  UNL1        0.2223
     10 C          66.0892   94.4938   12.2114 C.3     1  UNL1        0.1959
     11 O          66.0531   95.9593   11.8934 O.3     1  UNL1       -0.3374
     12 C          66.6668   96.4661   10.6219 C.3     1  UNL1        0.2591
     13 C          67.3165   95.5075    9.6686 C.2     1  UNL1        0.3194
     14 N          67.9302   96.0144    8.3971 N.pl3   1  UNL1       -0.2480
     15 N          67.3527   94.0420    9.9866 N.2     1  UNL1       -0.0693
     16 H          67.9065   96.9762    8.1884 H       1  UNL1        0.2882
     17 H          68.3566   95.3852    7.7714 H       1  UNL1        0.2882
     18 N          63.0528   90.5582   13.3910 N.pl3   1  UNL1       -0.3113
     19 H          62.3990   90.8887   14.0487 H       1  UNL1        0.1523
     20 C          62.6470   89.5212   12.3860 C.ar    1  UNL1        0.0670
     21 C          61.8955   89.9258   11.1525 C.ar    1  UNL1        0.0275
     22 C          61.4897   88.8888   10.1475 C.ar    1  UNL1        0.0590
     23 CL         60.7382   89.2935    8.9140 Cl      1  UNL1       -0.0822
     24 C          61.8354   87.4473   10.3760 C.ar    1  UNL1        0.0130
     25 C          62.5869   87.0426   11.6096 C.ar    1  UNL1        0.0206
     26 C          62.9327   85.6010   11.8381 C.ar    1  UNL1        0.0145
     27 C          63.6842   85.1964   13.0715 C.ar    1  UNL1        0.0768
     28 CL         64.0299   83.7547   13.3001 Cl      1  UNL1       -0.0806
     29 C          64.0899   86.2334   14.0765 C.ar    1  UNL1        0.1102
     30 N          63.7442   87.6750   13.8480 N.ar    1  UNL1       -0.2417
     31 C          62.9927   88.0796   12.6145 C.ar    1  UNL1        0.0947
@<TRIPOS>BOND
     1     9     8    1
     2     9     1    1
     3     1     2   ar
     4     2     3   ar
     5     3    18    1
     6    18    20    1
     7    20    21   ar
     8    21    22   ar
     9    22    23    1
    10    22    24   ar
    11    24    25   ar
    12    25    26   ar
    13    26    27   ar
    14    27    28    1
    15    27    29   ar
    16    29    30   ar
    17    30    31   ar
    18     3     4   ar
    19     4     5   ar
    20     5     6   ar
    21     6     7    1
    22     9    10    1
    23    10    11    1
    24    11    12    1
    25    12    13    1
    26    13    14    1
    27    13    15    2
    28    15     9    1
    29     6     1   ar
    30    31    20   ar
    31    31    25   ar
    32    18    19    1
    33    14    16    1
    34    14    17    1
@<TRIPOS>MOLECULE
*****
 31 34 0 0 0
SMALL
GASTEIGER

@<TRIPOS>ATOM
      1 C          64.4114   90.2101   14.7834 C.ar    1  UNL1        0.0528
      2 C          64.5776   88.7897   14.3309 C.ar    1  UNL1        0.0166
      3 C          64.0107   87.6697   15.1522 C.ar    1  UNL1        0.0483
      4 C          63.2776   87.9702   16.4259 C.ar    1  UNL1        0.0169
      5 C          63.1115   89.3907   16.8783 C.ar    1  UNL1        0.0307
      6 C          63.6783   90.5106   16.0571 C.ar    1  UNL1        0.1402
      7 F          63.5121   91.9310   16.5096 F       1  UNL1       -0.2044
      8 C          63.7347   91.0348   13.1770 C.3     1  UNL1        0.0607
      9 C          64.9783   91.3300   13.9622 C.3     1  UNL1        0.2223
     10 C          66.0250   91.2362   15.0325 C.3     1  UNL1        0.1959
     11 O          67.2066   92.1599   15.0090 O.3     1  UNL1       -0.3374
     12 C          67.3417   93.1773   13.9151 C.3     1  UNL1        0.2591
     13 C          66.2950   93.2710   12.8448 C.2     1  UNL1        0.3194
     14 N          66.4300   94.2884   11.7508 N.pl3   1  UNL1       -0.2480
     15 N          65.1133   92.3474   12.8683 N.2     1  UNL1       -0.0693
     16 H          67.2056   94.8946   11.7354 H       1  UNL1        0.2882
     17 H          65.7431   94.3500   11.0483 H       1  UNL1        0.2882
     18 N          64.1769   86.2493   14.6997 N.pl3   1  UNL1       -0.3113
     19 H          64.7126   85.6212   15.2362 H       1  UNL1        0.1523
     20 C          63.5268   85.7857   13.4298 C.ar    1  UNL1        0.0670
     21 C          63.0865   86.7872   12.4037 C.ar    1  UNL1        0.0275
     22 C          62.4364   86.3237   11.1338 C.ar    1  UNL1        0.0590
     23 CL         61.9961   87.3253   10.1077 Cl      1  UNL1       -0.0822
     24 C          62.2267   84.8586   10.8901 C.ar    1  UNL1        0.0130
     25 C          62.6670   83.8570   11.9163 C.ar    1  UNL1        0.0206
     26 C          62.4573   82.3919   11.6726 C.ar    1  UNL1        0.0145
     27 C          62.8976   81.3903   12.6987 C.ar    1  UNL1        0.0768
     28 CL         62.6879   79.9251   12.4550 Cl      1  UNL1       -0.0806
     29 C          63.5477   81.8539   13.9686 C.ar    1  UNL1        0.1102
     30 N          63.7574   83.3190   14.2123 N.ar    1  UNL1       -0.2417
     31 C          63.3171   84.3205   13.1861 C.ar    1  UNL1        0.0947
@<TRIPOS>BOND
     1     9     8    1
     2     9     1    1
     3     1     2   ar
     4     2     3   ar
     5     3    18    1
     6    18    20    1
     7    20    21   ar
     8    21    22   ar
     9    22    23    1
    10    22    24   ar
    11    24    25   ar
    12    25    26   ar
    13    26    27   ar
    14    27    28    1
    15    27    29   ar
    16    29    30   ar
    17    30    31   ar
    18     3     4   ar
    19     4     5   ar
    20     5     6   ar
    21     6     7    1
    22     9    10    1
    23    10    11    1
    24    11    12    1
    25    12    13    1
    26    13    14    1
    27    13    15    2
    28    15     9    1
    29     6     1   ar
    30    31    20   ar
    31    31    25   ar
    32    18    19    1
    33    14    16    1
    34    14    17    1
@<TRIPOS>MOLECULE
*****
 31 34 0 0 0
SMALL
GASTEIGER

@<TRIPOS>ATOM
      1 C          65.9537   92.6470   12.0194 C.ar    1  UNL1        0.0528
      2 C          64.6218   92.0110   11.7523 C.ar    1  UNL1        0.0166
      3 C          64.0597   91.0126   12.7205 C.ar    1  UNL1        0.0483
      4 C          64.8295   90.6503   13.9558 C.ar    1  UNL1        0.0169
      5 C          66.1616   91.2864   14.2229 C.ar    1  UNL1        0.0307
      6 C          66.7236   92.2847   13.2548 C.ar    1  UNL1        0.1402
      7 F          68.0555   92.9207   13.5219 F       1  UNL1       -0.2044
      8 C          66.9513   92.3700   10.3926 C.3     1  UNL1        0.0607
      9 C          66.5158   93.6453   11.0513 C.3     1  UNL1        0.2223
     10 C          65.8850   94.5740   12.0461 C.3     1  UNL1        0.1959
     11 O          65.9676   96.0580   11.8441 O.3     1  UNL1       -0.3374
     12 C          66.6809   96.6134   10.6472 C.3     1  UNL1        0.2591
     13 C          67.3116   95.6848    9.6523 C.2     1  UNL1        0.3194
     14 N          68.0250   96.2402    8.4553 N.pl3   1  UNL1       -0.2480
     15 N          67.2291   94.2008    9.8543 N.2     1  UNL1       -0.0693
     16 H          68.0792   97.2143    8.3227 H       1  UNL1        0.2882
     17 H          68.4390   95.6308    7.8023 H       1  UNL1        0.2882
     18 N          62.7277   90.3766   12.4534 N.pl3   1  UNL1       -0.3113
     19 H          61.9097   90.9243   12.4642 H       1  UNL1        0.1523
     20 C          62.6421   88.9062   12.1696 C.ar    1  UNL1        0.0670
     21 C          63.3941   87.9319   13.0270 C.ar    1  UNL1        0.0275
     22 C          63.3086   86.4614   12.7433 C.ar    1  UNL1        0.0590
     23 CL         64.0606   85.4871   13.6008 Cl      1  UNL1       -0.0822
     24 C          62.4709   85.9653   11.6022 C.ar    1  UNL1        0.0130
     25 C          61.7189   86.9396   10.7447 C.ar    1  UNL1        0.0206
     26 C          60.8813   86.4435    9.6036 C.ar    1  UNL1        0.0145
     27 C          60.1293   87.4178    8.7462 C.ar    1  UNL1        0.0768
     28 CL         59.2916   86.9217    7.6050 Cl      1  UNL1       -0.0806
     29 C          60.2149   88.8882    9.0299 C.ar    1  UNL1        0.1102
     30 N          61.0525   89.3844   10.1710 N.ar    1  UNL1       -0.2417
     31 C          61.8045   88.4101   11.0284 C.ar    1  UNL1        0.0947
@<TRIPOS>BOND
     1     9     8    1
     2     9     1    1
     3     1     2   ar
     4     2     3   ar
     5     3    18    1
     6    18    20    1
     7    20    21   ar
     8    21    22   ar
     9    22    23    1
    10    22    24   ar
    11    24    25   ar
    12    25    26   ar
    13    26    27   ar
    14    27    28    1
    15    27    29   ar
    16    29    30   ar
    17    30    31   ar
    18     3     4   ar
    19     4     5   ar
    20     5     6   ar
    21     6     7    1
    22     9    10    1
    23    10    11    1
    24    11    12    1
    25    12    13    1
    26    13    14    1
    27    13    15    2
    28    15     9    1
    29     6     1   ar
    30    31    20   ar
    31    31    25   ar
    32    18    19    1
    33    14    16    1
    34    14    17    1
@<TRIPOS>MOLECULE
*****
 31 34 0 0 0
SMALL
GASTEIGER

@<TRIPOS>ATOM
      1 C          63.8794   86.5086   14.9898 C.ar    1  UNL1        0.0528
      2 C          64.2388   87.8574   14.4407 C.ar    1  UNL1        0.0166
      3 C          63.9430   89.0942   15.2363 C.ar    1  UNL1        0.0483
      4 C          63.2878   88.9822   16.5809 C.ar    1  UNL1        0.0169
      5 C          62.9284   87.6333   17.1301 C.ar    1  UNL1        0.0307
      6 C          63.2242   86.3965   16.3345 C.ar    1  UNL1        0.1402
      7 F          62.8649   85.0478   16.8837 F       1  UNL1       -0.2044
      8 C          65.3950   85.3187   15.0661 C.3     1  UNL1        0.0607
      9 C          64.1752   85.2719   14.1943 C.3     1  UNL1        0.2223
     10 C          62.8528   85.6545   13.5987 C.3     1  UNL1        0.1959
     11 O          62.2497   84.8167   12.5104 O.3     1  UNL1       -0.3374
     12 C          62.9692   83.5962   12.0176 C.3     1  UNL1        0.2591
     13 C          64.2916   83.2136   12.6132 C.2     1  UNL1        0.3194
     14 N          65.0110   81.9930   12.1204 N.pl3   1  UNL1       -0.2480
     15 N          64.8947   84.0513   13.7015 N.2     1  UNL1       -0.0693
     16 H          64.6152   81.4432   11.4061 H       1  UNL1        0.2882
     17 H          65.8790   81.7419   12.5112 H       1  UNL1        0.2882
     18 N          64.3024   90.4430   14.6871 N.pl3   1  UNL1       -0.3113
     19 H          64.6876   91.1288   15.2791 H       1  UNL1        0.1523
     20 C          64.0748   90.7469   13.2360 C.ar    1  UNL1        0.0670
     21 C          63.1424   89.8936   12.4282 C.ar    1  UNL1        0.0275
     22 C          62.9149   90.1975   10.9771 C.ar    1  UNL1        0.0590
     23 CL         61.9824   89.3441   10.1693 Cl      1  UNL1       -0.0822
     24 C          63.6197   91.3547   10.3336 C.ar    1  UNL1        0.0130
     25 C          64.5521   92.2081   11.1414 C.ar    1  UNL1        0.0206
     26 C          65.2570   93.3653   10.4980 C.ar    1  UNL1        0.0145
     27 C          66.1893   94.2186   11.3057 C.ar    1  UNL1        0.0768
     28 CL         66.8942   95.3758   10.6623 Cl      1  UNL1       -0.0806
     29 C          66.4169   93.9147   12.7568 C.ar    1  UNL1        0.1102
     30 N          65.7121   92.7575   13.4003 N.ar    1  UNL1       -0.2417
     31 C          64.7797   91.9042   12.5925 C.ar    1  UNL1        0.0947
@<TRIPOS>BOND
     1     9     8    1
     2     9     1    1
     3     1     2   ar
     4     2     3   ar
     5     3    18    1
     6    18    20    1
     7    20    21   ar
     8    21    22   ar
     9    22    23    1
    10    22    24   ar
    11    24    25   ar
    12    25    26   ar
    13    26    27   ar
    14    27    28    1
    15    27    29   ar
    16    29    30   ar
    17    30    31   ar
    18     3     4   ar
    19     4     5   ar
    20     5     6   ar
    21     6     7    1
    22     9    10    1
    23    10    11    1
    24    11    12    1
    25    12    13    1
    26    13    14    1
    27    13    15    2
    28    15     9    1
    29     6     1   ar
    30    31    20   ar
    31    31    25   ar
    32    18    19    1
    33    14    16    1
    34    14    17    1
@<TRIPOS>MOLECULE
*****
 31 34 0 0 0
SMALL
GASTEIGER

@<TRIPOS>ATOM
      1 C          63.9772   90.8703   12.3951 C.ar    1  UNL1        0.0528
      2 C          63.2998   89.5498   12.6126 C.ar    1  UNL1        0.0166
      3 C          62.4857   88.9343   11.5133 C.ar    1  UNL1        0.0483
      4 C          62.3489   89.6395   10.1965 C.ar    1  UNL1        0.0169
      5 C          63.0263   90.9602    9.9790 C.ar    1  UNL1        0.0307
      6 C          63.8404   91.5755   11.0783 C.ar    1  UNL1        0.1402
      7 F          64.5177   92.8960   10.8608 F       1  UNL1       -0.2044
      8 C          65.7063   91.7215   12.3294 C.3     1  UNL1        0.0607
      9 C          64.7913   91.4856   13.4944 C.3     1  UNL1        0.2223
     10 C          63.5936   91.0362   14.2777 C.3     1  UNL1        0.1959
     11 O          63.5277   91.2839   15.7556 O.3     1  UNL1       -0.3374
     12 C          64.6596   91.9811   16.4504 C.3     1  UNL1        0.2591
     13 C          65.8573   92.4306   15.6671 C.2     1  UNL1        0.3194
     14 N          66.9892   93.1279   16.3619 N.pl3   1  UNL1       -0.2480
     15 N          65.9232   92.1829   14.1892 N.2     1  UNL1       -0.0693
     16 H          66.9460   93.2905   17.3319 H       1  UNL1        0.2882
     17 H          67.7753   93.4229   15.8479 H       1  UNL1        0.2882
     18 N          61.8083   87.6138   11.7308 N.pl3   1  UNL1       -0.3113
     19 H          61.0444   87.5482   12.3483 H       1  UNL1        0.1523
     20 C          62.2949   86.3932   11.0073 C.ar    1  UNL1        0.0670
     21 C          62.3880   86.3959    9.5103 C.ar    1  UNL1        0.0275
     22 C          62.8745   85.1753    8.7868 C.ar    1  UNL1        0.0590
     23 CL         62.9676   85.1781    7.2897 Cl      1  UNL1       -0.0822
     24 C          63.2679   83.9519    9.5605 C.ar    1  UNL1        0.0130
     25 C          63.1748   83.9491   11.0576 C.ar    1  UNL1        0.0206
     26 C          63.5682   82.7258   11.8313 C.ar    1  UNL1        0.0145
     27 C          63.4751   82.7230   13.3283 C.ar    1  UNL1        0.0768
     28 CL         63.8686   81.4996   14.1021 Cl      1  UNL1       -0.0806
     29 C          62.9886   83.9437   14.0518 C.ar    1  UNL1        0.1102
     30 N          62.5952   85.1670   13.2781 N.ar    1  UNL1       -0.2417
     31 C          62.6883   85.1698   11.7811 C.ar    1  UNL1        0.0947
@<TRIPOS>BOND
     1     9     8    1
     2     9     1    1
     3     1     2   ar
     4     2     3   ar
     5     3    18    1
     6    18    20    1
     7    20    21   ar
     8    21    22   ar
     9    22    23    1
    10    22    24   ar
    11    24    25   ar
    12    25    26   ar
    13    26    27   ar
    14    27    28    1
    15    27    29   ar
    16    29    30   ar
    17    30    31   ar
    18     3     4   ar
    19     4     5   ar
    20     5     6   ar
    21     6     7    1
    22     9    10    1
    23    10    11    1
    24    11    12    1
    25    12    13    1
    26    13    14    1
    27    13    15    2
    28    15     9    1
    29     6     1   ar
    30    31    20   ar
    31    31    25   ar
    32    18    19    1
    33    14    16    1
    34    14    17    1
@<TRIPOS>MOLECULE
*****
 31 34 0 0 0
SMALL
GASTEIGER

@<TRIPOS>ATOM
      1 C          65.0407   91.7356   12.2643 C.ar    1  UNL1        0.0528
      2 C          64.1778   90.5907   12.7053 C.ar    1  UNL1        0.0166
      3 C          63.0574   90.1148   11.8287 C.ar    1  UNL1        0.0483
      4 C          62.7999   90.7840   10.5112 C.ar    1  UNL1        0.0169
      5 C          63.6628   91.9290   10.0702 C.ar    1  UNL1        0.0307
      6 C          64.7832   92.4048   10.9468 C.ar    1  UNL1        0.1402
      7 F          65.6461   93.5497   10.5058 F       1  UNL1       -0.2044
      8 C          66.8540   92.2096   11.8105 C.3     1  UNL1        0.0607
      9 C          66.1610   92.2114   13.1409 C.3     1  UNL1        0.2223
     10 C          65.0791   92.0479   14.1668 C.3     1  UNL1        0.1959
     11 O          65.3580   92.3596   15.6073 O.3     1  UNL1       -0.3374
     12 C          66.7191   92.8348   16.0219 C.3     1  UNL1        0.2591
     13 C          67.8011   92.9982   14.9959 C.2     1  UNL1        0.3194
     14 N          69.1621   93.4734   15.4105 N.pl3   1  UNL1       -0.2480
     15 N          67.5221   92.6865   13.5554 N.2     1  UNL1       -0.0693
     16 H          69.3452   93.6780   16.3559 H       1  UNL1        0.2882
     17 H          69.8723   93.5807   14.7371 H       1  UNL1        0.2882
     18 N          62.1945   88.9699   12.2697 N.pl3   1  UNL1       -0.3113
     19 H          61.7504   88.9980   13.1479 H       1  UNL1        0.1523
     20 C          62.0083   87.7822   11.3727 C.ar    1  UNL1        0.0670
     21 C          61.2619   87.9284   10.0799 C.ar    1  UNL1        0.0275
     22 C          61.0756   86.7406    9.1829 C.ar    1  UNL1        0.0590
     23 CL         60.3292   86.8869    7.8900 Cl      1  UNL1       -0.0822
     24 C          61.6358   85.4067    9.5787 C.ar    1  UNL1        0.0130
     25 C          62.3823   85.2604   10.8716 C.ar    1  UNL1        0.0206
     26 C          62.9425   83.9265   11.2674 C.ar    1  UNL1        0.0145
     27 C          63.6889   83.7803   12.5602 C.ar    1  UNL1        0.0768
     28 CL         64.2492   82.4463   12.9561 Cl      1  UNL1       -0.0806
     29 C          63.8751   84.9680   13.4572 C.ar    1  UNL1        0.1102
     30 N          63.3149   86.3019   13.0614 N.ar    1  UNL1       -0.2417
     31 C          62.5685   86.4482   11.7686 C.ar    1  UNL1        0.0947
@<TRIPOS>BOND
     1     9     8    1
     2     9     1    1
     3     1     2   ar
     4     2     3   ar
     5     3    18    1
     6    18    20    1
     7    20    21   ar
     8    21    22   ar
     9    22    23    1
    10    22    24   ar
    11    24    25   ar
    12    25    26   ar
    13    26    27   ar
    14    27    28    1
    15    27    29   ar
    16    29    30   ar
    17    30    31   ar
    18     3     4   ar
    19     4     5   ar
    20     5     6   ar
    21     6     7    1
    22     9    10    1
    23    10    11    1
    24    11    12    1
    25    12    13    1
    26    13    14    1
    27    13    15    2
    28    15     9    1
    29     6     1   ar
    30    31    20   ar
    31    31    25   ar
    32    18    19    1
    33    14    16    1
    34    14    17    1
@<TRIPOS>MOLECULE
*****
 31 34 0 0 0
SMALL
GASTEIGER

@<TRIPOS>ATOM
      1 C          61.6839   86.7943    9.5180 C.ar    1  UNL1        0.0528
      2 C          61.8880   88.1507   10.1251 C.ar    1  UNL1        0.0166
      3 C          61.0833   89.3192    9.6381 C.ar    1  UNL1        0.0483
      4 C          60.0744   89.1312    8.5441 C.ar    1  UNL1        0.0169
      5 C          59.8703   87.7747    7.9371 C.ar    1  UNL1        0.0307
      6 C          60.6750   86.6063    8.4240 C.ar    1  UNL1        0.1402
      7 F          60.4709   85.2499    7.8170 F       1  UNL1       -0.2044
      8 C          62.9282   85.6655    8.5714 C.3     1  UNL1        0.0607
      9 C          62.4886   85.6259   10.0050 C.3     1  UNL1        0.2223
     10 C          61.7696   85.9920   11.2695 C.3     1  UNL1        0.1959
     11 O          62.0080   85.2036   12.5231 O.3     1  UNL1       -0.3374
     12 C          62.9654   84.0489   12.5122 C.3     1  UNL1        0.2591
     13 C          63.6844   83.6827   11.2477 C.2     1  UNL1        0.3194
     14 N          64.6418   82.5280   11.2368 N.pl3   1  UNL1       -0.2480
     15 N          63.4460   84.4712    9.9941 N.2     1  UNL1       -0.0693
     16 H          64.7983   82.0105   12.0596 H       1  UNL1        0.2882
     17 H          65.1137   82.2877   10.4069 H       1  UNL1        0.2882
     18 N          61.2874   90.6755   10.2451 N.pl3   1  UNL1       -0.3113
     19 H          60.5735   91.3514   10.1914 H       1  UNL1        0.1523
     20 C          62.5792   91.0023   10.9339 C.ar    1  UNL1        0.0670
     21 C          63.6483   91.7591   10.2032 C.ar    1  UNL1        0.0275
     22 C          64.9401   92.0859   10.8920 C.ar    1  UNL1        0.0590
     23 CL         66.0093   92.8428   10.1612 Cl      1  UNL1       -0.0822
     24 C          65.1628   91.6557   12.3116 C.ar    1  UNL1        0.0130
     25 C          64.0937   90.8987   13.0425 C.ar    1  UNL1        0.0206
     26 C          64.3164   90.4686   14.4621 C.ar    1  UNL1        0.0145
     27 C          63.2473   89.7117   15.1928 C.ar    1  UNL1        0.0768
     28 CL         63.4699   89.2814   16.6125 Cl      1  UNL1       -0.0806
     29 C          61.9555   89.3849   14.5040 C.ar    1  UNL1        0.1102
     30 N          61.7328   89.8151   13.0844 N.ar    1  UNL1       -0.2417
     31 C          62.8019   90.5720   12.3536 C.ar    1  UNL1        0.0947
@<TRIPOS>BOND
     1     9     8    1
     2     9     1    1
     3     1     2   ar
     4     2     3   ar
     5     3    18    1
     6    18    20    1
     7    20    21   ar
     8    21    22   ar
     9    22    23    1
    10    22    24   ar
    11    24    25   ar
    12    25    26   ar
    13    26    27   ar
    14    27    28    1
    15    27    29   ar
    16    29    30   ar
    17    30    31   ar
    18     3     4   ar
    19     4     5   ar
    20     5     6   ar
    21     6     7    1
    22     9    10    1
    23    10    11    1
    24    11    12    1
    25    12    13    1
    26    13    14    1
    27    13    15    2
    28    15     9    1
    29     6     1   ar
    30    31    20   ar
    31    31    25   ar
    32    18    19    1
    33    14    16    1
    34    14    17    1
@<TRIPOS>MOLECULE
*****
 31 34 0 0 0
SMALL
GASTEIGER

@<TRIPOS>ATOM
      1 C          61.6559   86.7468    9.6787 C.ar    1  UNL1        0.0528
      2 C          62.4983   85.8963   10.5825 C.ar    1  UNL1        0.0166
      3 C          63.1897   84.6810   10.0393 C.ar    1  UNL1        0.0483
      4 C          63.0387   84.3162    8.5922 C.ar    1  UNL1        0.0169
      5 C          62.1962   85.1667    7.6883 C.ar    1  UNL1        0.0307
      6 C          61.5048   86.3820    8.2316 C.ar    1  UNL1        0.1402
      7 F          60.6624   87.2324    7.3277 F       1  UNL1       -0.2044
      8 C          59.7820   87.0652   10.0041 C.3     1  UNL1        0.0607
      9 C          60.9645   87.9620   10.2219 C.3     1  UNL1        0.2223
     10 C          62.3871   88.4369   10.2511 C.3     1  UNL1        0.1959
     11 O          62.7077   89.8154   10.7478 O.3     1  UNL1       -0.3374
     12 C          61.6056   90.7193   11.2154 C.3     1  UNL1        0.2591
     13 C          60.1830   90.2444   11.1862 C.2     1  UNL1        0.3194
     14 N          59.0810   91.1482   11.6539 N.pl3   1  UNL1       -0.2480
     15 N          59.8625   88.8658   10.6895 N.2     1  UNL1       -0.0693
     16 H          59.2914   92.0531   11.9799 H       1  UNL1        0.2882
     17 H          58.1473   90.8366   11.6347 H       1  UNL1        0.2882
     18 N          64.0322   83.8306   10.9432 N.pl3   1  UNL1       -0.3113
     19 H          64.9830   83.6830   10.7350 H       1  UNL1        0.1523
     20 C          63.4259   83.2049   12.1642 C.ar    1  UNL1        0.0670
     21 C          62.8720   81.8126   12.0971 C.ar    1  UNL1        0.0275
     22 C          62.2657   81.1869   13.3182 C.ar    1  UNL1        0.0590
     23 CL         61.7118   79.7945   13.2510 Cl      1  UNL1       -0.0822
     24 C          62.2133   81.9536   14.6063 C.ar    1  UNL1        0.0130
     25 C          62.7672   83.3460   14.6735 C.ar    1  UNL1        0.0206
     26 C          62.7149   84.1127   15.9616 C.ar    1  UNL1        0.0145
     27 C          63.2688   85.5050   16.0288 C.ar    1  UNL1        0.0768
     28 CL         63.2164   86.2718   17.3170 Cl      1  UNL1       -0.0806
     29 C          63.8750   86.1307   14.8077 C.ar    1  UNL1        0.1102
     30 N          63.9274   85.3640   13.5195 N.ar    1  UNL1       -0.2417
     31 C          63.3735   83.9717   13.4524 C.ar    1  UNL1        0.0947
@<TRIPOS>BOND
     1     9     8    1
     2     9     1    1
     3     1     2   ar
     4     2     3   ar
     5     3    18    1
     6    18    20    1
     7    20    21   ar
     8    21    22   ar
     9    22    23    1
    10    22    24   ar
    11    24    25   ar
    12    25    26   ar
    13    26    27   ar
    14    27    28    1
    15    27    29   ar
    16    29    30   ar
    17    30    31   ar
    18     3     4   ar
    19     4     5   ar
    20     5     6   ar
    21     6     7    1
    22     9    10    1
    23    10    11    1
    24    11    12    1
    25    12    13    1
    26    13    14    1
    27    13    15    2
    28    15     9    1
    29     6     1   ar
    30    31    20   ar
    31    31    25   ar
    32    18    19    1
    33    14    16    1
    34    14    17    1
@<TRIPOS>MOLECULE
*****
 31 34 0 0 0
SMALL
GASTEIGER

@<TRIPOS>ATOM
      1 C          61.6744   86.9431    9.9291 C.ar    1  UNL1        0.0528
      2 C          61.9829   88.1645   10.7433 C.ar    1  UNL1        0.0166
      3 C          61.2319   89.4395   10.4971 C.ar    1  UNL1        0.0483
      4 C          60.1723   89.4929    9.4367 C.ar    1  UNL1        0.0169
      5 C          59.8637   88.2715    8.6225 C.ar    1  UNL1        0.0307
      6 C          60.6148   86.9966    8.8687 C.ar    1  UNL1        0.1402
      7 F          60.3062   85.7752    8.0545 F       1  UNL1       -0.2044
      8 C          62.7355   85.8769    8.7225 C.3     1  UNL1        0.0607
      9 C          62.4254   85.6683   10.1752 C.3     1  UNL1        0.2223
     10 C          61.8545   85.9024   11.5424 C.3     1  UNL1        0.1959
     11 O          62.1423   84.9341   12.6513 O.3     1  UNL1       -0.3374
     12 C          63.0010   83.7317   12.3930 C.3     1  UNL1        0.2591
     13 C          63.5719   83.4976   11.0258 C.2     1  UNL1        0.3194
     14 N          64.4307   82.2951   10.7675 N.pl3   1  UNL1       -0.2480
     15 N          63.2842   84.4658    9.9169 N.2     1  UNL1       -0.0693
     16 H          64.6196   81.6596   11.4953 H       1  UNL1        0.2882
     17 H          64.8054   82.1414    9.8702 H       1  UNL1        0.2882
     18 N          61.5404   90.6609   11.3113 N.pl3   1  UNL1       -0.3113
     19 H          60.9850   91.4683   11.2174 H       1  UNL1        0.1523
     20 C          62.6952   90.6521   12.2685 C.ar    1  UNL1        0.0670
     21 C          62.5801   89.9260   13.5760 C.ar    1  UNL1        0.0275
     22 C          63.7349   89.9172   14.5332 C.ar    1  UNL1        0.0590
     23 CL         63.6198   89.1911   15.8408 Cl      1  UNL1       -0.0822
     24 C          65.0049   90.6346   14.1830 C.ar    1  UNL1        0.0130
     25 C          65.1200   91.3607   12.8755 C.ar    1  UNL1        0.0206
     26 C          66.3899   92.0780   12.5253 C.ar    1  UNL1        0.0145
     27 C          66.5050   92.8041   11.2178 C.ar    1  UNL1        0.0768
     28 CL         67.7750   93.5215   10.8675 Cl      1  UNL1       -0.0806
     29 C          65.3502   92.8128   10.2606 C.ar    1  UNL1        0.1102
     30 N          64.0803   92.0955   10.6108 N.ar    1  UNL1       -0.2417
     31 C          63.9652   91.3695   11.9183 C.ar    1  UNL1        0.0947
@<TRIPOS>BOND
     1     9     8    1
     2     9     1    1
     3     1     2   ar
     4     2     3   ar
     5     3    18    1
     6    18    20    1
     7    20    21   ar
     8    21    22   ar
     9    22    23    1
    10    22    24   ar
    11    24    25   ar
    12    25    26   ar
    13    26    27   ar
    14    27    28    1
    15    27    29   ar
    16    29    30   ar
    17    30    31   ar
    18     3     4   ar
    19     4     5   ar
    20     5     6   ar
    21     6     7    1
    22     9    10    1
    23    10    11    1
    24    11    12    1
    25    12    13    1
    26    13    14    1
    27    13    15    2
    28    15     9    1
    29     6     1   ar
    30    31    20   ar
    31    31    25   ar
    32    18    19    1
    33    14    16    1
    34    14    17    1
