@<TRIPOS>MOLECULE
*****
 25 27 0 0 0
SMALL
GASTEIGER

@<TRIPOS>ATOM
      1 C          65.7887   92.6695   13.2397 C.3     1  UNL1        0.0952
      2 C          65.9066   93.2058   11.8439 C.3     1  UNL1        0.0245
      3 C          65.0578   92.6347   10.7469 C.3     1  UNL1        0.0067
      4 C          64.0911   91.5274   11.0457 C.3     1  UNL1        0.0263
      5 C          63.9733   90.9912   12.4416 C.ar    1  UNL1       -0.0216
      6 C          63.0065   89.8838   12.7405 C.ar    1  UNL1        0.0150
      7 C          62.8887   89.3475   14.1363 C.ar    1  UNL1        0.0985
      8 N          63.7375   89.9186   15.2333 N.ar    1  UNL1       -0.2426
      9 C          64.7041   91.0259   14.9345 C.ar    1  UNL1        0.0959
     10 C          64.8221   91.5622   13.5386 C.ar    1  UNL1        0.0107
     11 C          62.1577   89.3128   11.6434 C.ar    1  UNL1        0.0012
     12 C          62.4681   87.9561   11.0840 C.ar    1  UNL1        0.0007
     13 C          61.6193   87.3851    9.9869 C.ar    1  UNL1        0.0103
     14 C          60.4601   88.1707    9.4494 C.ar    1  UNL1        0.0684
     15 C          60.1497   89.5274   10.0089 C.ar    1  UNL1        0.0103
     16 C          60.9985   90.0985   11.1059 C.ar    1  UNL1        0.0007
     17 C          59.6113   87.5997    8.3524 C.1     1  UNL1        0.1004
     18 N          58.7625   87.0286    7.2554 N.1     1  UNL1       -0.1908
     19 C          68.0413   92.7492   14.5319 C.2     1  UNL1        0.2222
     20 O          68.5962   91.6868   13.6300 O.2     1  UNL1       -0.2751
     21 N          66.6376   93.2405   14.3367 N.am    1  UNL1       -0.3022
     22 H          66.2733   93.9378   14.9287 H       1  UNL1        0.1497
     23 C          69.6575   92.4054   16.5368 C.3     1  UNL1        0.0096
     24 C          68.8901   93.3202   15.6289 C.3     1  UNL1        0.0765
     25 C          68.9714   94.8060   15.8181 C.3     1  UNL1        0.0096
@<TRIPOS>BOND
     1    23    24    1
     2    24    25    1
     3    24    19    1
     4    19    20    2
     5    19    21   am
     6    21     1    1
     7     1     2    1
     8     2     3    1
     9     3     4    1
    10     4     5    1
    11     5     6   ar
    12     6    11    1
    13    11    12   ar
    14    12    13   ar
    15    13    14   ar
    16    14    17    1
    17    17    18    3
    18    14    15   ar
    19    15    16   ar
    20     6     7   ar
    21     7     8   ar
    22     8     9   ar
    23     9    10   ar
    24    10     1    1
    25    10     5   ar
    26    16    11   ar
    27    21    22    1
@<TRIPOS>MOLECULE
*****
 25 27 0 0 0
SMALL
GASTEIGER

@<TRIPOS>ATOM
      1 C          64.7800   92.9928   10.8846 C.3     1  UNL1        0.0952
      2 C          63.9133   92.0572   10.0951 C.3     1  UNL1        0.0245
      3 C          63.3910   90.8027   10.7301 C.3     1  UNL1        0.0067
      4 C          63.7355   90.4837   12.1548 C.3     1  UNL1        0.0263
      5 C          64.6022   91.4193   12.9443 C.ar    1  UNL1       -0.0216
      6 C          64.9467   91.1004   14.3690 C.ar    1  UNL1        0.0150
      7 C          65.8135   92.0360   15.1585 C.ar    1  UNL1        0.0985
      8 N          66.3357   93.2906   14.5234 N.ar    1  UNL1       -0.2426
      9 C          65.9913   93.6095   13.0988 C.ar    1  UNL1        0.0959
     10 C          65.1245   92.6739   12.3092 C.ar    1  UNL1        0.0107
     11 C          64.4245   89.8459   15.0041 C.ar    1  UNL1        0.0012
     12 C          64.7723   88.5087   14.4201 C.ar    1  UNL1        0.0007
     13 C          64.2500   87.2542   15.0552 C.ar    1  UNL1        0.0103
     14 C          63.3799   87.3368   16.2743 C.ar    1  UNL1        0.0684
     15 C          63.0321   88.6740   16.8582 C.ar    1  UNL1        0.0103
     16 C          63.5543   89.9285   16.2231 C.ar    1  UNL1        0.0007
     17 C          62.8577   86.0822   16.9093 C.1     1  UNL1        0.1004
     18 N          62.3354   84.8277   17.5444 N.1     1  UNL1       -0.1908
     19 C          66.7359   94.3278    9.8158 C.2     1  UNL1        0.2222
     20 O          67.6474   93.1535   10.0172 O.2     1  UNL1       -0.2751
     21 N          65.3023   94.2474   10.2495 N.am    1  UNL1       -0.3022
     22 H          64.7041   95.0181   10.1173 H       1  UNL1        0.1497
     23 C          67.7236   95.5634    7.7548 C.3     1  UNL1        0.0096
     24 C          67.2582   95.5823    9.1807 C.3     1  UNL1        0.0765
     25 C          67.3150   96.8557    9.9714 C.3     1  UNL1        0.0096
@<TRIPOS>BOND
     1    23    24    1
     2    24    25    1
     3    24    19    1
     4    19    20    2
     5    19    21   am
     6    21     1    1
     7     1     2    1
     8     2     3    1
     9     3     4    1
    10     4     5    1
    11     5     6   ar
    12     6    11    1
    13    11    12   ar
    14    12    13   ar
    15    13    14   ar
    16    14    17    1
    17    17    18    3
    18    14    15   ar
    19    15    16   ar
    20     6     7   ar
    21     7     8   ar
    22     8     9   ar
    23     9    10   ar
    24    10     1    1
    25    10     5   ar
    26    16    11   ar
    27    21    22    1
@<TRIPOS>MOLECULE
*****
 25 27 0 0 0
SMALL
GASTEIGER

@<TRIPOS>ATOM
      1 C          66.1893   93.9149   12.3194 C.3     1  UNL1        0.0952
      2 C          66.8525   94.1407   13.6457 C.3     1  UNL1        0.0245
      3 C          66.5826   93.2066   14.7879 C.3     1  UNL1        0.0067
      4 C          65.6496   92.0467   14.6038 C.3     1  UNL1        0.0263
      5 C          64.9864   91.8209   13.2775 C.ar    1  UNL1       -0.0216
      6 C          64.0533   90.6609   13.0933 C.ar    1  UNL1        0.0150
      7 C          63.3902   90.4350   11.7670 C.ar    1  UNL1        0.0985
      8 N          63.6600   91.3692   10.6248 N.ar    1  UNL1       -0.2426
      9 C          64.5930   92.5291   10.8089 C.ar    1  UNL1        0.0959
     10 C          65.2563   92.7550   12.1353 C.ar    1  UNL1        0.0107
     11 C          63.7835   89.7267   14.2355 C.ar    1  UNL1        0.0012
     12 C          63.0910   90.2290   15.4676 C.ar    1  UNL1        0.0007
     13 C          62.8211   89.2949   16.6098 C.ar    1  UNL1        0.0103
     14 C          63.2438   87.8585   16.5199 C.ar    1  UNL1        0.0684
     15 C          63.9363   87.3562   15.2877 C.ar    1  UNL1        0.0103
     16 C          64.2062   88.2903   14.1456 C.ar    1  UNL1        0.0007
     17 C          62.9739   86.9244   17.6621 C.1     1  UNL1        0.1004
     18 N          62.7041   85.9903   18.8043 N.1     1  UNL1       -0.1908
     19 C          67.3465   94.4162   10.0480 C.2     1  UNL1        0.2222
     20 O          67.9640   93.0492   10.0608 O.2     1  UNL1       -0.2751
     21 N          66.4592   94.8490   11.1772 N.am    1  UNL1       -0.3022
     22 H          66.0539   95.7462   11.1688 H       1  UNL1        0.1497
     23 C          67.6099   96.8332    9.1321 C.3     1  UNL1        0.0096
     24 C          67.6163   95.3503    8.9058 C.3     1  UNL1        0.0765
     25 C          67.8926   94.8017    7.5374 C.3     1  UNL1        0.0096
@<TRIPOS>BOND
     1    23    24    1
     2    24    25    1
     3    24    19    1
     4    19    20    2
     5    19    21   am
     6    21     1    1
     7     1     2    1
     8     2     3    1
     9     3     4    1
    10     4     5    1
    11     5     6   ar
    12     6    11    1
    13    11    12   ar
    14    12    13   ar
    15    13    14   ar
    16    14    17    1
    17    17    18    3
    18    14    15   ar
    19    15    16   ar
    20     6     7   ar
    21     7     8   ar
    22     8     9   ar
    23     9    10   ar
    24    10     1    1
    25    10     5   ar
    26    16    11   ar
    27    21    22    1
@<TRIPOS>MOLECULE
*****
 25 27 0 0 0
SMALL
GASTEIGER

@<TRIPOS>ATOM
      1 C          65.0168   91.4875   14.7990 C.3     1  UNL1        0.0952
      2 C          64.2424   90.4895   15.6078 C.3     1  UNL1        0.0245
      3 C          63.2085   89.6278   14.9455 C.3     1  UNL1        0.0067
      4 C          62.9491   89.7642   13.4745 C.3     1  UNL1        0.0263
      5 C          63.7235   90.7622   12.6657 C.ar    1  UNL1       -0.0216
      6 C          63.4640   90.8986   11.1945 C.ar    1  UNL1        0.0150
      7 C          64.2385   91.8966   10.3857 C.ar    1  UNL1        0.0985
      8 N          65.2723   92.7583   11.0480 N.ar    1  UNL1       -0.2426
      9 C          65.5318   92.6219   12.5191 C.ar    1  UNL1        0.0959
     10 C          64.7574   91.6239   13.3279 C.ar    1  UNL1        0.0107
     11 C          62.4302   90.0369   10.5323 C.ar    1  UNL1        0.0012
     12 C          61.0489   90.5712   10.2947 C.ar    1  UNL1        0.0007
     13 C          60.0150   89.7095    9.6324 C.ar    1  UNL1        0.0103
     14 C          60.3624   88.3135    9.2078 C.ar    1  UNL1        0.0684
     15 C          61.7437   87.7791    9.4454 C.ar    1  UNL1        0.0103
     16 C          62.7776   88.6408   10.1076 C.ar    1  UNL1        0.0007
     17 C          59.3285   87.4518    8.5455 C.1     1  UNL1        0.1004
     18 N          58.2946   86.5901    7.8832 N.1     1  UNL1       -0.1908
     19 C          67.5079   92.1061   15.2015 C.2     1  UNL1        0.2222
     20 O          67.9312   91.0012   14.2794 O.2     1  UNL1       -0.2751
     21 N          66.0507   92.3492   15.4612 N.am    1  UNL1       -0.3022
     22 H          65.7729   93.0744   16.0664 H       1  UNL1        0.1497
     23 C          68.4754   94.4599   15.7246 C.3     1  UNL1        0.0096
     24 C          68.5418   92.9678   15.8637 C.3     1  UNL1        0.0765
     25 C          69.6419   92.3374   16.6651 C.3     1  UNL1        0.0096
@<TRIPOS>BOND
     1    23    24    1
     2    24    25    1
     3    24    19    1
     4    19    20    2
     5    19    21   am
     6    21     1    1
     7     1     2    1
     8     2     3    1
     9     3     4    1
    10     4     5    1
    11     5     6   ar
    12     6    11    1
    13    11    12   ar
    14    12    13   ar
    15    13    14   ar
    16    14    17    1
    17    17    18    3
    18    14    15   ar
    19    15    16   ar
    20     6     7   ar
    21     7     8   ar
    22     8     9   ar
    23     9    10   ar
    24    10     1    1
    25    10     5   ar
    26    16    11   ar
    27    21    22    1
@<TRIPOS>MOLECULE
*****
 25 27 0 0 0
SMALL
GASTEIGER

@<TRIPOS>ATOM
      1 C          63.3160   84.1262   13.9004 C.3     1  UNL1        0.0952
      2 C          64.3229   84.2658   15.0033 C.3     1  UNL1        0.0245
      3 C          64.9524   85.5990   15.2798 C.3     1  UNL1        0.0067
      4 C          64.5749   86.7925   14.4535 C.3     1  UNL1        0.0263
      5 C          63.5679   86.6529   13.3506 C.ar    1  UNL1       -0.0216
      6 C          63.1903   87.8464   12.5241 C.ar    1  UNL1        0.0150
      7 C          62.1833   87.7068   11.4212 C.ar    1  UNL1        0.0985
      8 N          61.5539   86.3737   11.1447 N.ar    1  UNL1       -0.2426
      9 C          61.9314   85.1801   11.9711 C.ar    1  UNL1        0.0959
     10 C          62.9384   85.3197   13.0740 C.ar    1  UNL1        0.0107
     11 C          63.8198   89.1796   12.8007 C.ar    1  UNL1        0.0012
     12 C          63.7285   90.2777   11.7829 C.ar    1  UNL1        0.0007
     13 C          64.3580   91.6108   12.0594 C.ar    1  UNL1        0.0103
     14 C          65.0787   91.8459   13.3537 C.ar    1  UNL1        0.0684
     15 C          65.1700   90.7478   14.3716 C.ar    1  UNL1        0.0103
     16 C          64.5405   89.4147   14.0950 C.ar    1  UNL1        0.0007
     17 C          65.7082   93.1791   13.6303 C.1     1  UNL1        0.1004
     18 N          66.3377   94.5122   13.9068 N.1     1  UNL1       -0.1908
     19 C          63.3460   81.8340   12.6777 C.2     1  UNL1        0.2222
     20 O          64.6351   82.2081   12.0081 O.2     1  UNL1       -0.2751
     21 N          62.6865   82.7930   13.6239 N.am    1  UNL1       -0.3022
     22 H          61.8404   82.5475   14.0634 H       1  UNL1        0.1497
     23 C          62.7820   79.9119   11.0231 C.3     1  UNL1        0.0096
     24 C          62.7166   80.5009   12.4012 C.3     1  UNL1        0.0765
     25 C          62.0217   79.7566   13.5026 C.3     1  UNL1        0.0096
@<TRIPOS>BOND
     1    23    24    1
     2    24    25    1
     3    24    19    1
     4    19    20    2
     5    19    21   am
     6    21     1    1
     7     1     2    1
     8     2     3    1
     9     3     4    1
    10     4     5    1
    11     5     6   ar
    12     6    11    1
    13    11    12   ar
    14    12    13   ar
    15    13    14   ar
    16    14    17    1
    17    17    18    3
    18    14    15   ar
    19    15    16   ar
    20     6     7   ar
    21     7     8   ar
    22     8     9   ar
    23     9    10   ar
    24    10     1    1
    25    10     5   ar
    26    16    11   ar
    27    21    22    1
@<TRIPOS>MOLECULE
*****
 25 27 0 0 0
SMALL
GASTEIGER

@<TRIPOS>ATOM
      1 C          63.5068   90.4211   12.9131 C.3     1  UNL1        0.0952
      2 C          63.2331   91.3180   11.7424 C.3     1  UNL1        0.0245
      3 C          62.8345   90.7277   10.4224 C.3     1  UNL1        0.0067
      4 C          62.7095   89.2405   10.2730 C.3     1  UNL1        0.0263
      5 C          62.9832   88.3435   11.4436 C.ar    1  UNL1       -0.0216
      6 C          62.8582   86.8561   11.2943 C.ar    1  UNL1        0.0150
      7 C          63.1318   85.9592   12.4649 C.ar    1  UNL1        0.0985
      8 N          63.5305   86.5495   13.7850 N.ar    1  UNL1       -0.2426
      9 C          63.6555   88.0368   13.9344 C.ar    1  UNL1        0.0959
     10 C          63.3818   88.9338   12.7637 C.ar    1  UNL1        0.0107
     11 C          62.4595   86.2658    9.9742 C.ar    1  UNL1        0.0012
     12 C          63.4179   85.3883    9.2249 C.ar    1  UNL1        0.0007
     13 C          63.0192   84.7980    7.9049 C.ar    1  UNL1        0.0103
     14 C          61.6622   85.0852    7.3340 C.ar    1  UNL1        0.0684
     15 C          60.7037   85.9628    8.0833 C.ar    1  UNL1        0.0103
     16 C          61.1024   86.5531    9.4033 C.ar    1  UNL1        0.0007
     17 C          61.2635   84.4949    6.0139 C.1     1  UNL1        0.1004
     18 N          60.8649   83.9046    4.6939 N.1     1  UNL1       -0.1908
     19 C          65.2850   91.5703   14.4189 C.2     1  UNL1        0.2222
     20 O          66.2659   91.5389   13.2845 O.2     1  UNL1       -0.2751
     21 N          63.9055   91.0114   14.2332 N.am    1  UNL1       -0.3022
     22 H          63.2617   91.0320   14.9777 H       1  UNL1        0.1497
     23 C          67.0788   92.6735   15.9405 C.3     1  UNL1        0.0096
     24 C          65.6837   92.1606   15.7390 C.3     1  UNL1        0.0765
     25 C          64.6873   92.2379   16.8575 C.3     1  UNL1        0.0096
@<TRIPOS>BOND
     1    23    24    1
     2    24    25    1
     3    24    19    1
     4    19    20    2
     5    19    21   am
     6    21     1    1
     7     1     2    1
     8     2     3    1
     9     3     4    1
    10     4     5    1
    11     5     6   ar
    12     6    11    1
    13    11    12   ar
    14    12    13   ar
    15    13    14   ar
    16    14    17    1
    17    17    18    3
    18    14    15   ar
    19    15    16   ar
    20     6     7   ar
    21     7     8   ar
    22     8     9   ar
    23     9    10   ar
    24    10     1    1
    25    10     5   ar
    26    16    11   ar
    27    21    22    1
@<TRIPOS>MOLECULE
*****
 25 27 0 0 0
SMALL
GASTEIGER

@<TRIPOS>ATOM
      1 C          63.9085   91.7149   11.1738 C.3     1  UNL1        0.0952
      2 C          63.0916   91.0532   10.1039 C.3     1  UNL1        0.0245
      3 C          62.6552   89.6274   10.2674 C.3     1  UNL1        0.0067
      4 C          63.0357   88.8634   11.5009 C.3     1  UNL1        0.0263
      5 C          63.8525   89.5251   12.5708 C.ar    1  UNL1       -0.0216
      6 C          64.2330   88.7611   13.8044 C.ar    1  UNL1        0.0150
      7 C          65.0499   89.4228   14.8743 C.ar    1  UNL1        0.0985
      8 N          65.4863   90.8486   14.7108 N.ar    1  UNL1       -0.2426
      9 C          65.1058   91.6126   13.4773 C.ar    1  UNL1        0.0959
     10 C          64.2889   90.9509   12.4073 C.ar    1  UNL1        0.0107
     11 C          63.7966   87.3353   13.9679 C.ar    1  UNL1        0.0012
     12 C          63.9363   86.6561   15.2979 C.ar    1  UNL1        0.0007
     13 C          63.4999   85.2303   15.4615 C.ar    1  UNL1        0.0103
     14 C          62.9238   84.4838   14.2949 C.ar    1  UNL1        0.0684
     15 C          62.7841   85.1630   12.9648 C.ar    1  UNL1        0.0103
     16 C          63.2205   86.5888   12.8013 C.ar    1  UNL1        0.0007
     17 C          62.4874   83.0580   14.4585 C.1     1  UNL1        0.1004
     18 N          62.0510   81.6322   14.6220 N.1     1  UNL1       -0.1908
     19 C          65.7421   93.4506   10.5612 C.2     1  UNL1        0.2222
     20 O          66.7030   92.3346   10.2756 O.2     1  UNL1       -0.2751
     21 N          64.3449   93.1407   11.0103 N.am    1  UNL1       -0.3022
     22 H          63.7142   93.8731   11.1977 H       1  UNL1        0.1497
     23 C          66.1068   95.8207   11.5609 C.3     1  UNL1        0.0096
     24 C          66.1785   94.8763   10.3977 C.3     1  UNL1        0.0765
     25 C          66.6865   95.3577    9.0710 C.3     1  UNL1        0.0096
@<TRIPOS>BOND
     1    23    24    1
     2    24    25    1
     3    24    19    1
     4    19    20    2
     5    19    21   am
     6    21     1    1
     7     1     2    1
     8     2     3    1
     9     3     4    1
    10     4     5    1
    11     5     6   ar
    12     6    11    1
    13    11    12   ar
    14    12    13   ar
    15    13    14   ar
    16    14    17    1
    17    17    18    3
    18    14    15   ar
    19    15    16   ar
    20     6     7   ar
    21     7     8   ar
    22     8     9   ar
    23     9    10   ar
    24    10     1    1
    25    10     5   ar
    26    16    11   ar
    27    21    22    1
@<TRIPOS>MOLECULE
*****
 25 27 0 0 0
SMALL
GASTEIGER

@<TRIPOS>ATOM
      1 C          62.0216   87.5709   11.0859 C.3     1  UNL1        0.0952
      2 C          62.5247   86.7629   12.2452 C.3     1  UNL1        0.0245
      3 C          63.4870   87.3711   13.2219 C.3     1  UNL1        0.0067
      4 C          63.9463   88.7873   13.0393 C.3     1  UNL1        0.0263
      5 C          63.4433   89.5953   11.8800 C.ar    1  UNL1       -0.0216
      6 C          63.9026   91.0116   11.6974 C.ar    1  UNL1        0.0150
      7 C          63.3996   91.8195   10.5381 C.ar    1  UNL1        0.0985
      8 N          62.4372   91.2113    9.5613 N.ar    1  UNL1       -0.2426
      9 C          61.9779   89.7951    9.7439 C.ar    1  UNL1        0.0959
     10 C          62.4809   88.9871   10.9033 C.ar    1  UNL1        0.0107
     11 C          64.8649   91.6198   12.6741 C.ar    1  UNL1        0.0012
     12 C          65.9091   92.5847   12.1962 C.ar    1  UNL1        0.0007
     13 C          66.8714   93.1929   13.1729 C.ar    1  UNL1        0.0103
     14 C          66.7896   92.8362   14.6276 C.ar    1  UNL1        0.0684
     15 C          65.7453   91.8712   15.1055 C.ar    1  UNL1        0.0103
     16 C          64.7830   91.2629   14.1288 C.ar    1  UNL1        0.0007
     17 C          67.7519   93.4444   15.6043 C.1     1  UNL1        0.1004
     18 N          68.7142   94.0526   16.5810 N.1     1  UNL1       -0.1908
     19 C          61.5607   86.4072    8.8092 C.2     1  UNL1        0.2222
     20 O          63.0246   86.4598    8.4859 O.2     1  UNL1       -0.2751
     21 N          61.0593   86.9627   10.1091 N.am    1  UNL1       -0.3022
     22 H          60.0986   86.9281   10.3213 H       1  UNL1        0.1497
     23 C          59.1875   86.3026    7.7572 C.3     1  UNL1        0.0096
     24 C          60.5984   85.7990    7.8325 C.3     1  UNL1        0.0765
     25 C          61.0470   84.6871    6.9311 C.3     1  UNL1        0.0096
@<TRIPOS>BOND
     1    23    24    1
     2    24    25    1
     3    24    19    1
     4    19    20    2
     5    19    21   am
     6    21     1    1
     7     1     2    1
     8     2     3    1
     9     3     4    1
    10     4     5    1
    11     5     6   ar
    12     6    11    1
    13    11    12   ar
    14    12    13   ar
    15    13    14   ar
    16    14    17    1
    17    17    18    3
    18    14    15   ar
    19    15    16   ar
    20     6     7   ar
    21     7     8   ar
    22     8     9   ar
    23     9    10   ar
    24    10     1    1
    25    10     5   ar
    26    16    11   ar
    27    21    22    1
@<TRIPOS>MOLECULE
*****
 25 27 0 0 0
SMALL
GASTEIGER

@<TRIPOS>ATOM
      1 C          63.9035   89.0698   14.2443 C.3     1  UNL1        0.0952
      2 C          64.1982   87.6310   14.5491 C.3     1  UNL1        0.0245
      3 C          63.8768   86.5694   13.5393 C.3     1  UNL1        0.0067
      4 C          63.2606   86.9466   12.2248 C.3     1  UNL1        0.0263
      5 C          62.9658   88.3854   11.9201 C.ar    1  UNL1       -0.0216
      6 C          62.3496   88.7626   10.6055 C.ar    1  UNL1        0.0150
      7 C          62.0548   90.2014   10.3007 C.ar    1  UNL1        0.0985
      8 N          62.3763   91.2631   11.3105 N.ar    1  UNL1       -0.2426
      9 C          62.9925   90.8859   12.6250 C.ar    1  UNL1        0.0959
     10 C          63.2873   89.4470   12.9298 C.ar    1  UNL1        0.0107
     11 C          62.0281   87.7010    9.5957 C.ar    1  UNL1        0.0012
     12 C          63.0741   86.7016    9.1993 C.ar    1  UNL1        0.0007
     13 C          62.7526   85.6400    8.1896 C.ar    1  UNL1        0.0103
     14 C          61.3852   85.5777    7.5762 C.ar    1  UNL1        0.0684
     15 C          60.3391   86.5771    7.9726 C.ar    1  UNL1        0.0103
     16 C          60.6606   87.6388    8.9824 C.ar    1  UNL1        0.0007
     17 C          61.0637   84.5161    6.5665 C.1     1  UNL1        0.1004
     18 N          60.7423   83.4545    5.5567 N.1     1  UNL1       -0.1908
     19 C          65.3224   91.1173   14.9824 C.2     1  UNL1        0.2222
     20 O          66.0984   91.0415   13.7009 O.2     1  UNL1       -0.2751
     21 N          64.2250   90.1315   15.2541 N.am    1  UNL1       -0.3022
     22 H          63.7156   90.1812   16.0951 H       1  UNL1        0.1497
     23 C          64.6152   92.5867   17.0050 C.3     1  UNL1        0.0096
     24 C          65.6438   92.1789   15.9922 C.3     1  UNL1        0.0765
     25 C          66.9938   92.8327   15.9891 C.3     1  UNL1        0.0096
@<TRIPOS>BOND
     1    23    24    1
     2    24    25    1
     3    24    19    1
     4    19    20    2
     5    19    21   am
     6    21     1    1
     7     1     2    1
     8     2     3    1
     9     3     4    1
    10     4     5    1
    11     5     6   ar
    12     6    11    1
    13    11    12   ar
    14    12    13   ar
    15    13    14   ar
    16    14    17    1
    17    17    18    3
    18    14    15   ar
    19    15    16   ar
    20     6     7   ar
    21     7     8   ar
    22     8     9   ar
    23     9    10   ar
    24    10     1    1
    25    10     5   ar
    26    16    11   ar
    27    21    22    1
