@<TRIPOS>MOLECULE
*****
 30 34 0 0 0
SMALL
GASTEIGER

@<TRIPOS>ATOM
      1 C          62.9425   87.5493   17.8002 C.3     1  UNL1        0.0298
      2 C          63.2659   87.7829   16.3542 C.3     1  UNL1        0.1343
      3 C          63.5061   89.1768   15.8550 C.ar    1  UNL1        0.1615
      4 N          63.4923   90.5073   16.5476 N.ar    1  UNL1       -0.1316
      5 N          63.8072   91.5630   15.5297 N.ar    1  UNL1       -0.1274
      6 C          64.0156   90.8851   14.2079 C.ar    1  UNL1        0.1846
      7 N          63.8295   89.4103   14.4090 N.ar    1  UNL1       -0.2944
      8 C          63.9127   88.2499   13.4622 C.3     1  UNL1        0.1302
      9 C          63.6725   86.8560   13.9614 C.3     1  UNL1        0.1186
     10 N          63.3492   86.6224   15.4073 N.am    1  UNL1       -0.2688
     11 C          63.1090   85.2284   15.9065 C.2     1  UNL1        0.2494
     12 O          62.7856   84.9949   17.3525 O.2     1  UNL1       -0.2699
     13 C          63.1922   84.0680   14.9597 C.ar    1  UNL1        0.0537
     14 C          64.3818   83.9193   14.0583 C.ar    1  UNL1        0.0068
     15 C          64.4650   82.7588   13.1114 C.ar    1  UNL1        0.0298
     16 C          63.3586   81.7471   13.0661 C.ar    1  UNL1        0.1401
     17 F          63.4417   80.5866   12.1194 F       1  UNL1       -0.2042
     18 C          62.1689   81.8957   13.9676 C.ar    1  UNL1        0.0298
     19 C          62.0857   83.0562   14.9144 C.ar    1  UNL1        0.0068
     20 C          64.3511   91.5630   12.9126 C.ar    1  UNL1        0.1241
     21 C          63.8669   91.1552   11.5527 C.ar    1  UNL1        0.0591
     22 S          64.4464   92.1079   10.5494 S.2     1  UNL1       -0.0658
     23 C          65.2888   93.1044   11.2892 C.ar    1  UNL1        0.1108
     24 N          65.2299   92.7676   12.7497 N.ar    1  UNL1       -0.2352
     25 C          66.0554   94.2386   10.6761 C.ar    1  UNL1        0.0238
     26 C          66.9589   93.9870    9.5053 C.ar    1  UNL1        0.0020
     27 C          67.7255   95.1211    8.8922 C.ar    1  UNL1        0.0001
     28 C          67.5887   96.5070    9.4498 C.ar    1  UNL1        0.0000
     29 C          66.6853   96.7585   10.6205 C.ar    1  UNL1        0.0001
     30 C          65.9186   95.6244   11.2336 C.ar    1  UNL1        0.0020
@<TRIPOS>BOND
     1     2     1    1
     2     2     3    1
     3     3     4   ar
     4     4     5   ar
     5     5     6   ar
     6     6    20    1
     7    20    21   ar
     8    21    22   ar
     9    22    23   ar
    10    23    25    1
    11    25    26   ar
    12    26    27   ar
    13    27    28   ar
    14    28    29   ar
    15    29    30   ar
    16    23    24   ar
    17     6     7   ar
    18     7     8    1
    19     8     9    1
    20     9    10    1
    21    10    11   am
    22    11    12    2
    23    11    13    1
    24    13    14   ar
    25    14    15   ar
    26    15    16   ar
    27    16    17    1
    28    16    18   ar
    29    18    19   ar
    30    10     2    1
    31    19    13   ar
    32     7     3   ar
    33    24    20   ar
    34    30    25   ar
@<TRIPOS>MOLECULE
*****
 30 34 0 0 0
SMALL
GASTEIGER

@<TRIPOS>ATOM
      1 C          62.1131   86.9751   17.2545 C.3     1  UNL1        0.0298
      2 C          62.9469   87.5823   16.1654 C.3     1  UNL1        0.1343
      3 C          63.3857   89.0131   16.2659 C.ar    1  UNL1        0.1615
      4 N          63.1521   90.0635   17.3110 N.ar    1  UNL1       -0.1316
      5 N          63.8415   91.3197   16.8677 N.ar    1  UNL1       -0.1274
      6 C          64.5011   91.0458   15.5487 C.ar    1  UNL1        0.1846
      7 N          64.2194   89.6202   15.1767 N.ar    1  UNL1       -0.2944
      8 C          64.6144   88.7965   13.9870 C.3     1  UNL1        0.1302
      9 C          64.1756   87.3656   13.8865 C.3     1  UNL1        0.1186
     10 N          63.3419   86.7585   14.9756 N.am    1  UNL1       -0.2688
     11 C          62.9031   85.3276   14.8750 C.2     1  UNL1        0.2494
     12 O          62.0693   84.7205   15.9642 O.2     1  UNL1       -0.2699
     13 C          63.2980   84.5039   13.6853 C.ar    1  UNL1        0.0537
     14 C          64.2615   83.3657   13.8476 C.ar    1  UNL1        0.0068
     15 C          64.6564   82.5420   12.6578 C.ar    1  UNL1        0.0298
     16 C          64.0880   82.8564   11.3059 C.ar    1  UNL1        0.1401
     17 F          64.4829   82.0327   10.1161 F       1  UNL1       -0.2042
     18 C          63.1245   83.9946   11.1436 C.ar    1  UNL1        0.0298
     19 C          62.7295   84.8183   12.3333 C.ar    1  UNL1        0.0068
     20 C          65.3019   92.0255   14.7430 C.ar    1  UNL1        0.1241
     21 C          66.2814   93.0226   15.2875 C.ar    1  UNL1        0.0591
     22 S          66.8486   93.7934   14.1324 S.2     1  UNL1       -0.0658
     23 C          66.2197   93.2727   12.8741 C.ar    1  UNL1        0.1108
     24 N          65.2638   92.1800   13.2515 N.ar    1  UNL1       -0.2352
     25 C          66.4978   93.7591   11.4827 C.ar    1  UNL1        0.0238
     26 C          66.0391   95.1231   11.0593 C.ar    1  UNL1        0.0020
     27 C          66.3172   95.6096    9.6679 C.ar    1  UNL1        0.0001
     28 C          67.0541   94.7321    8.6999 C.ar    1  UNL1        0.0000
     29 C          67.5128   93.3682    9.1233 C.ar    1  UNL1        0.0001
     30 C          67.2347   92.8817   10.5147 C.ar    1  UNL1        0.0020
@<TRIPOS>BOND
     1     2     1    1
     2     2     3    1
     3     3     4   ar
     4     4     5   ar
     5     5     6   ar
     6     6    20    1
     7    20    21   ar
     8    21    22   ar
     9    22    23   ar
    10    23    25    1
    11    25    26   ar
    12    26    27   ar
    13    27    28   ar
    14    28    29   ar
    15    29    30   ar
    16    23    24   ar
    17     6     7   ar
    18     7     8    1
    19     8     9    1
    20     9    10    1
    21    10    11   am
    22    11    12    2
    23    11    13    1
    24    13    14   ar
    25    14    15   ar
    26    15    16   ar
    27    16    17    1
    28    16    18   ar
    29    18    19   ar
    30    10     2    1
    31    19    13   ar
    32     7     3   ar
    33    24    20   ar
    34    30    25   ar
@<TRIPOS>MOLECULE
*****
 30 34 0 0 0
SMALL
GASTEIGER

@<TRIPOS>ATOM
      1 C          66.4308   93.8599   14.5293 C.3     1  UNL1        0.0298
      2 C          65.7920   92.9997   13.4795 C.3     1  UNL1        0.1343
      3 C          65.2702   91.6402   13.8393 C.ar    1  UNL1        0.1615
      4 N          65.2454   90.8853   15.1353 N.ar    1  UNL1       -0.1316
      5 N          64.5913   89.5586   14.8864 N.ar    1  UNL1       -0.1274
      6 C          64.2118   89.4935   13.4367 C.ar    1  UNL1        0.1846
      7 N          64.6314   90.7800   12.7895 N.ar    1  UNL1       -0.2944
      8 C          64.5144   91.2793   11.3799 C.3     1  UNL1        0.1302
      9 C          65.0362   92.6389   11.0202 C.3     1  UNL1        0.1186
     10 N          65.6750   93.4990   12.0699 N.am    1  UNL1       -0.2688
     11 C          66.1968   94.8586   11.7101 C.2     1  UNL1        0.2494
     12 O          66.8355   95.7187   12.7599 O.2     1  UNL1       -0.2699
     13 C          66.0798   95.3579   10.3005 C.ar    1  UNL1        0.0537
     14 C          64.9919   96.3237    9.9348 C.ar    1  UNL1        0.0068
     15 C          64.8749   96.8231    8.5252 C.ar    1  UNL1        0.0298
     16 C          65.8457   96.3566    7.4813 C.ar    1  UNL1        0.1401
     17 F          65.7288   96.8559    6.0717 F       1  UNL1       -0.2042
     18 C          66.9337   95.3908    7.8470 C.ar    1  UNL1        0.0298
     19 C          67.0507   94.8914    9.2566 C.ar    1  UNL1        0.0068
     20 C          63.5321   88.3438   12.7540 C.ar    1  UNL1        0.1241
     21 C          62.4652   88.4473   11.7046 C.ar    1  UNL1        0.0591
     22 S          62.0737   87.0561   11.3029 S.2     1  UNL1       -0.0658
     23 C          62.8985   86.0928   12.1040 C.ar    1  UNL1        0.1108
     24 N          63.7999   86.8886   13.0008 N.ar    1  UNL1       -0.2352
     25 C          62.8335   84.5964   12.0225 C.ar    1  UNL1        0.0238
     26 C          63.1759   83.8996   10.7391 C.ar    1  UNL1        0.0020
     27 C          63.1109   82.4032   10.6576 C.ar    1  UNL1        0.0001
     28 C          62.7034   81.6037   11.8596 C.ar    1  UNL1        0.0000
     29 C          62.3609   82.3005   13.1430 C.ar    1  UNL1        0.0001
     30 C          62.4260   83.7969   13.2245 C.ar    1  UNL1        0.0020
@<TRIPOS>BOND
     1     2     1    1
     2     2     3    1
     3     3     4   ar
     4     4     5   ar
     5     5     6   ar
     6     6    20    1
     7    20    21   ar
     8    21    22   ar
     9    22    23   ar
    10    23    25    1
    11    25    26   ar
    12    26    27   ar
    13    27    28   ar
    14    28    29   ar
    15    29    30   ar
    16    23    24   ar
    17     6     7   ar
    18     7     8    1
    19     8     9    1
    20     9    10    1
    21    10    11   am
    22    11    12    2
    23    11    13    1
    24    13    14   ar
    25    14    15   ar
    26    15    16   ar
    27    16    17    1
    28    16    18   ar
    29    18    19   ar
    30    10     2    1
    31    19    13   ar
    32     7     3   ar
    33    24    20   ar
    34    30    25   ar
@<TRIPOS>MOLECULE
*****
 30 34 0 0 0
SMALL
GASTEIGER

@<TRIPOS>ATOM
      1 C          64.4174   87.4270   14.4427 C.3     1  UNL1        0.0298
      2 C          63.5230   87.0099   13.3131 C.3     1  UNL1        0.1343
      3 C          63.0013   88.0359   12.3513 C.ar    1  UNL1        0.1615
      4 N          63.1959   89.5207   12.2645 N.ar    1  UNL1       -0.1316
      5 N          62.4217   90.0212   11.0812 N.ar    1  UNL1       -0.1274
      6 C          61.7486   88.8458   10.4367 C.ar    1  UNL1        0.1846
      7 N          62.1069   87.6188   11.2217 N.ar    1  UNL1       -0.2944
      8 C          61.7342   86.1756   11.0538 C.3     1  UNL1        0.1302
      9 C          62.2559   85.1495   12.0156 C.3     1  UNL1        0.1186
     10 N          63.1502   85.5666   13.1451 N.am    1  UNL1       -0.2688
     11 C          63.6720   84.5405   14.1069 C.2     1  UNL1        0.2494
     12 O          64.5664   84.9576   15.2365 O.2     1  UNL1       -0.2699
     13 C          63.2993   83.0972   13.9391 C.ar    1  UNL1        0.0537
     14 C          64.1979   82.1752   13.1694 C.ar    1  UNL1        0.0068
     15 C          63.8251   80.7319   13.0016 C.ar    1  UNL1        0.0298
     16 C          62.5539   80.2108   13.6033 C.ar    1  UNL1        0.1401
     17 F          62.1811   78.7676   13.4356 F       1  UNL1       -0.2042
     18 C          61.6552   81.1329   14.3730 C.ar    1  UNL1        0.0298
     19 C          62.0279   82.5761   14.5409 C.ar    1  UNL1        0.0068
     20 C          60.8714   88.8897    9.2208 C.ar    1  UNL1        0.1241
     21 C          59.9528   87.7985    8.7564 C.ar    1  UNL1        0.0591
     22 S          59.2725   88.2669    7.5043 S.2     1  UNL1       -0.0658
     23 C          59.7706   89.6475    7.1948 C.ar    1  UNL1        0.1108
     24 N          60.7588   90.0324    8.2556 N.ar    1  UNL1       -0.2352
     25 C          59.3537   90.4946    6.0291 C.ar    1  UNL1        0.0238
     26 C          60.3920   91.0834    5.1206 C.ar    1  UNL1        0.0020
     27 C          59.9751   91.9304    3.9549 C.ar    1  UNL1        0.0001
     28 C          58.5200   92.1886    3.6978 C.ar    1  UNL1        0.0000
     29 C          57.4818   91.5998    4.6064 C.ar    1  UNL1        0.0001
     30 C          57.8987   90.7528    5.7720 C.ar    1  UNL1        0.0020
@<TRIPOS>BOND
     1     2     1    1
     2     2     3    1
     3     3     4   ar
     4     4     5   ar
     5     5     6   ar
     6     6    20    1
     7    20    21   ar
     8    21    22   ar
     9    22    23   ar
    10    23    25    1
    11    25    26   ar
    12    26    27   ar
    13    27    28   ar
    14    28    29   ar
    15    29    30   ar
    16    23    24   ar
    17     6     7   ar
    18     7     8    1
    19     8     9    1
    20     9    10    1
    21    10    11   am
    22    11    12    2
    23    11    13    1
    24    13    14   ar
    25    14    15   ar
    26    15    16   ar
    27    16    17    1
    28    16    18   ar
    29    18    19   ar
    30    10     2    1
    31    19    13   ar
    32     7     3   ar
    33    24    20   ar
    34    30    25   ar
@<TRIPOS>MOLECULE
*****
 30 34 0 0 0
SMALL
GASTEIGER

@<TRIPOS>ATOM
      1 C          64.4836   92.2338   16.6012 C.3     1  UNL1        0.0298
      2 C          64.4898   91.0438   15.6880 C.3     1  UNL1        0.1343
      3 C          63.8873   89.7471   16.1417 C.ar    1  UNL1        0.1615
      4 N          63.2204   89.3444   17.4234 N.ar    1  UNL1       -0.1316
      5 N          62.8144   87.9054   17.3024 N.ar    1  UNL1       -0.1274
      6 C          63.2304   87.4189   15.9459 C.ar    1  UNL1        0.1846
      7 N          63.8935   88.5571   15.2285 N.ar    1  UNL1       -0.2944
      8 C          64.5022   88.6638   13.8617 C.3     1  UNL1        0.1302
      9 C          65.1046   89.9604   13.4081 C.3     1  UNL1        0.1186
     10 N          65.0984   91.1504   14.3212 N.am    1  UNL1       -0.2688
     11 C          65.7009   92.4471   13.8675 C.2     1  UNL1        0.2494
     12 O          65.6947   93.6370   14.7807 O.2     1  UNL1       -0.2699
     13 C          66.3096   92.5537   12.5007 C.ar    1  UNL1        0.0537
     14 C          67.6396   91.9194   12.2204 C.ar    1  UNL1        0.0068
     15 C          68.2482   92.0261   10.8535 C.ar    1  UNL1        0.0298
     16 C          67.5269   92.7670    9.7671 C.ar    1  UNL1        0.1401
     17 F          68.1354   92.8737    8.4003 F       1  UNL1       -0.2042
     18 C          66.1967   93.4014   10.0474 C.ar    1  UNL1        0.0298
     19 C          65.5881   93.2947   11.4142 C.ar    1  UNL1        0.0068
     20 C          63.0202   86.0368   15.4022 C.ar    1  UNL1        0.1241
     21 C          62.4002   84.8853   16.1367 C.ar    1  UNL1        0.0591
     22 S          62.3899   83.7003   15.2170 S.2     1  UNL1       -0.0658
     23 C          63.0037   84.1195   13.9141 C.ar    1  UNL1        0.1108
     24 N          63.3933   85.5635   14.0286 N.ar    1  UNL1       -0.2352
     25 C          63.1944   83.2477   12.7084 C.ar    1  UNL1        0.0238
     26 C          62.6112   81.8660   12.6822 C.ar    1  UNL1        0.0020
     27 C          62.8019   80.9942   11.4765 C.ar    1  UNL1        0.0001
     28 C          63.5759   81.5042   10.2971 C.ar    1  UNL1        0.0000
     29 C          64.1591   82.8859   10.3234 C.ar    1  UNL1        0.0001
     30 C          63.9683   83.7577   11.5291 C.ar    1  UNL1        0.0020
@<TRIPOS>BOND
     1     2     1    1
     2     2     3    1
     3     3     4   ar
     4     4     5   ar
     5     5     6   ar
     6     6    20    1
     7    20    21   ar
     8    21    22   ar
     9    22    23   ar
    10    23    25    1
    11    25    26   ar
    12    26    27   ar
    13    27    28   ar
    14    28    29   ar
    15    29    30   ar
    16    23    24   ar
    17     6     7   ar
    18     7     8    1
    19     8     9    1
    20     9    10    1
    21    10    11   am
    22    11    12    2
    23    11    13    1
    24    13    14   ar
    25    14    15   ar
    26    15    16   ar
    27    16    17    1
    28    16    18   ar
    29    18    19   ar
    30    10     2    1
    31    19    13   ar
    32     7     3   ar
    33    24    20   ar
    34    30    25   ar
@<TRIPOS>MOLECULE
*****
 30 34 0 0 0
SMALL
GASTEIGER

@<TRIPOS>ATOM
      1 C          61.2727   86.1800   11.1514 C.3     1  UNL1        0.0298
      2 C          61.2984   87.4925   10.4255 C.3     1  UNL1        0.1343
      3 C          60.5054   87.6678    9.1644 C.ar    1  UNL1        0.1615
      4 N          59.6124   86.7341    8.4023 N.ar    1  UNL1       -0.1316
      5 N          59.0863   87.4694    7.2055 N.ar    1  UNL1       -0.1274
      6 C          59.6541   88.8577    7.2279 C.ar    1  UNL1        0.1846
      7 N          60.5311   88.9803    8.4386 N.ar    1  UNL1       -0.2944
      8 C          61.3498   90.1174    8.9739 C.3     1  UNL1        0.1302
      9 C          62.1428   89.9421   10.2350 C.3     1  UNL1        0.1186
     10 N          62.1171   88.6297   10.9608 N.am    1  UNL1       -0.2688
     11 C          62.9102   88.4544   12.2220 C.2     1  UNL1        0.2494
     12 O          62.8844   87.1420   12.9478 O.2     1  UNL1       -0.2699
     13 C          63.7289   89.5916   12.7572 C.ar    1  UNL1        0.0537
     14 C          64.3510   89.4922   14.1185 C.ar    1  UNL1        0.0068
     15 C          65.1698   90.6294   14.6538 C.ar    1  UNL1        0.0298
     16 C          65.3664   91.8659   13.8278 C.ar    1  UNL1        0.1401
     17 F          66.1851   93.0031   14.3630 F       1  UNL1       -0.2042
     18 C          64.7443   91.9653   12.4665 C.ar    1  UNL1        0.0298
     19 C          63.9255   90.8281   11.9312 C.ar    1  UNL1        0.0068
     20 C          59.3909   89.9342    6.2171 C.ar    1  UNL1        0.1241
     21 C          58.0929   90.6594    6.0190 C.ar    1  UNL1        0.0591
     22 S          58.2795   91.6480    4.9063 S.2     1  UNL1       -0.0658
     23 C          59.6927   91.5338    4.4168 C.ar    1  UNL1        0.1108
     24 N          60.3797   90.4746    5.2269 N.ar    1  UNL1       -0.2352
     25 C          60.3106   92.3376    3.3113 C.ar    1  UNL1        0.0238
     26 C          61.7946   92.2999    3.0957 C.ar    1  UNL1        0.0020
     27 C          62.4125   93.1038    1.9902 C.ar    1  UNL1        0.0001
     28 C          61.5463   93.9453    1.1003 C.ar    1  UNL1        0.0000
     29 C          60.0624   93.9830    1.3160 C.ar    1  UNL1        0.0001
     30 C          59.4446   93.1791    2.4215 C.ar    1  UNL1        0.0020
@<TRIPOS>BOND
     1     2     1    1
     2     2     3    1
     3     3     4   ar
     4     4     5   ar
     5     5     6   ar
     6     6    20    1
     7    20    21   ar
     8    21    22   ar
     9    22    23   ar
    10    23    25    1
    11    25    26   ar
    12    26    27   ar
    13    27    28   ar
    14    28    29   ar
    15    29    30   ar
    16    23    24   ar
    17     6     7   ar
    18     7     8    1
    19     8     9    1
    20     9    10    1
    21    10    11   am
    22    11    12    2
    23    11    13    1
    24    13    14   ar
    25    14    15   ar
    26    15    16   ar
    27    16    17    1
    28    16    18   ar
    29    18    19   ar
    30    10     2    1
    31    19    13   ar
    32     7     3   ar
    33    24    20   ar
    34    30    25   ar
