@<TRIPOS>MOLECULE
*****
 38 41 0 0 0
SMALL
GASTEIGER

@<TRIPOS>ATOM
      1 N          61.7116   88.8196   11.1530 N.am    1  UNL1       -0.2770
      2 C          61.8672   88.2378    9.7791 C.2     1  UNL1        0.2294
      3 O          62.5953   87.9137    9.7590 O.2     1  UNL1       -0.2747
      4 C          60.7495   88.3517    8.7854 C.3     1  UNL1        0.1208
      5 C          60.3250   89.7007    8.2854 C.3     1  UNL1        0.0804
      6 N          59.2072   89.8147    7.2916 N.3     1  UNL1       -0.2969
      7 C          58.5139   88.5795    6.7978 C.3     1  UNL1        0.0714
      8 C          58.9384   87.2305    7.2978 C.3     1  UNL1        0.0487
      9 C          60.0561   87.1166    8.2916 C.3     1  UNL1        0.1177
     10 O          59.7092   85.6671    8.1225 O.3     1  UNL1       -0.3821
     11 H          59.5892   90.2857    6.4715 H       1  UNL1        0.1233
     12 H          58.9797   85.5810    7.4890 H       1  UNL1        0.2107
     13 C          61.0534   86.4993    9.2266 C.ar    1  UNL1        0.0023
     14 C          62.3801   86.0314    8.7059 C.ar    1  UNL1       -0.0020
     15 C          63.3773   85.4141    9.6410 C.ar    1  UNL1       -0.0002
     16 C          63.0480   85.2647   11.0968 C.ar    1  UNL1       -0.0000
     17 C          61.7214   85.7326   11.6175 C.ar    1  UNL1       -0.0002
     18 C          60.7241   86.3499   10.6824 C.ar    1  UNL1       -0.0020
     19 C          60.4382   89.5153   11.5330 C.3     1  UNL1        0.0758
     20 C          59.5409   90.7149   11.4575 C.3     1  UNL1        0.0215
     21 C          59.1299   89.5207   12.2666 C.3     1  UNL1        0.0215
     22 C          62.8294   88.7057   12.1467 C.3     1  UNL1        0.1201
     23 C          64.8683   92.0782   11.6790 C.ar    1  UNL1       -0.0194
     24 C          64.0133   90.8846   11.3718 C.ar    1  UNL1       -0.0067
     25 C          63.6844   89.8993   12.4539 C.ar    1  UNL1        0.0004
     26 C          64.2103   90.1076   13.8431 C.ar    1  UNL1        0.0343
     27 C          65.0653   91.3012   14.1503 C.ar    1  UNL1        0.1381
     28 C          65.3942   92.2865   13.0682 C.ar    1  UNL1        0.0326
     29 C          65.1973   93.0636   10.5969 C.3     1  UNL1        0.0290
     30 C          66.2211   94.1322   10.8415 C.3     1  UNL1        0.0367
     31 C          67.1323   94.5659    9.7318 C.3     1  UNL1        0.1426
     32 C          68.6127   92.4569    9.3991 C.3     1  UNL1        0.1741
     33 O          68.4877   93.9399    9.5864 O.3     1  UNL1       -0.3511
     34 O          65.5913   91.5095   15.5395 O.3     1  UNL1       -0.4728
     35 C          66.5738   92.6095   15.8124 C.3     1  UNL1        0.2373
     36 C          68.0467   92.3309   15.7551 C.3     1  UNL1        0.1894
     37 O          68.8236   92.6553   14.5138 O.3     1  UNL1       -0.3471
     38 C          68.7400   91.7521   13.3192 C.3     1  UNL1        0.1743
@<TRIPOS>BOND
     1    32    33    1
     2    33    31    1
     3    31    30    1
     4    30    29    1
     5    29    23    1
     6    23    24   ar
     7    24    25   ar
     8    25    22    1
     9    22     1    1
    10     1     2   am
    11     2     3    2
    12     4     2    1
    13     4     5    1
    14     5     6    1
    15     6     7    1
    16     7     8    1
    17     8     9    1
    18     9    10    1
    19     9    13    1
    20    13    14   ar
    21    14    15   ar
    22    15    16   ar
    23    16    17   ar
    24    17    18   ar
    25     1    19    1
    26    19    20    1
    27    20    21    1
    28    25    26   ar
    29    26    27   ar
    30    27    34    1
    31    34    35    1
    32    35    36    1
    33    36    37    1
    34    37    38    1
    35    27    28   ar
    36    28    23   ar
    37     9     4    1
    38    18    13   ar
    39    21    19    1
    40     6    11    1
    41    10    12    1
@<TRIPOS>MOLECULE
*****
 38 41 0 0 0
SMALL
GASTEIGER

@<TRIPOS>ATOM
      1 N          61.6972   88.8602   11.1478 N.am    1  UNL1       -0.2770
      2 C          61.8552   88.2508    9.7863 C.2     1  UNL1        0.2294
      3 O          62.5804   87.9199    9.7764 O.2     1  UNL1       -0.2747
      4 C          60.7439   88.3557    8.7842 C.3     1  UNL1        0.1208
      5 C          60.3161   89.7009    8.2768 C.3     1  UNL1        0.0804
      6 N          59.2049   89.8058    7.2747 N.3     1  UNL1       -0.2969
      7 C          58.5215   88.5655    6.7800 C.3     1  UNL1        0.0714
      8 C          58.9494   87.2203    7.2874 C.3     1  UNL1        0.0487
      9 C          60.0606   87.1154    8.2895 C.3     1  UNL1        0.1177
     10 O          59.7223   85.6636    8.1227 O.3     1  UNL1       -0.3821
     11 H          59.5903   90.2762    6.4558 H       1  UNL1        0.1233
     12 H          58.9978   85.5717    7.4843 H       1  UNL1        0.2107
     13 C          61.0543   86.5064    9.2336 C.ar    1  UNL1        0.0023
     14 C          62.3767   86.0197    8.7194 C.ar    1  UNL1       -0.0020
     15 C          63.3704   85.4106    9.6636 C.ar    1  UNL1       -0.0002
     16 C          63.0418   85.2882   11.1220 C.ar    1  UNL1       -0.0000
     17 C          61.7195   85.7748   11.6363 C.ar    1  UNL1       -0.0002
     18 C          60.7257   86.3839   10.6920 C.ar    1  UNL1       -0.0020
     19 C          60.4282   89.5744   11.5072 C.3     1  UNL1        0.0758
     20 C          59.5676   90.8017   11.4510 C.3     1  UNL1        0.0215
     21 C          59.0906   89.5842   12.1859 C.3     1  UNL1        0.0215
     22 C          62.8085   88.7553   12.1499 C.3     1  UNL1        0.1201
     23 C          65.1919   91.2941   14.0536 C.ar    1  UNL1       -0.0194
     24 C          64.3175   90.1073   13.7762 C.ar    1  UNL1       -0.0067
     25 C          63.6828   89.9422   12.4272 C.ar    1  UNL1        0.0004
     26 C          63.9225   90.9639   11.3555 C.ar    1  UNL1        0.0343
     27 C          64.7968   92.1507   11.6328 C.ar    1  UNL1        0.1381
     28 C          65.4315   92.3158   12.9819 C.ar    1  UNL1        0.0326
     29 C          65.8266   91.4592   15.4026 C.3     1  UNL1        0.0290
     30 C          66.7799   92.5906   15.6496 C.3     1  UNL1        0.0367
     31 C          68.2594   92.3532   15.5815 C.3     1  UNL1        0.1426
     32 C          68.8035   91.7484   13.1141 C.3     1  UNL1        0.1741
     33 O          69.0058   92.6306   14.3103 O.3     1  UNL1       -0.3511
     34 O          65.0365   93.1725   10.5611 O.3     1  UNL1       -0.4728
     35 C          66.0603   94.2492   10.7669 C.3     1  UNL1        0.2373
     36 C          67.1970   94.3981    9.7994 C.3     1  UNL1        0.1894
     37 O          68.4405   93.5771    9.9711 O.3     1  UNL1       -0.3471
     38 C          68.7123   92.4258    9.0489 C.3     1  UNL1        0.1743
@<TRIPOS>BOND
     1    32    33    1
     2    33    31    1
     3    31    30    1
     4    30    29    1
     5    29    23    1
     6    23    24   ar
     7    24    25   ar
     8    25    22    1
     9    22     1    1
    10     1     2   am
    11     2     3    2
    12     4     2    1
    13     4     5    1
    14     5     6    1
    15     6     7    1
    16     7     8    1
    17     8     9    1
    18     9    10    1
    19     9    13    1
    20    13    14   ar
    21    14    15   ar
    22    15    16   ar
    23    16    17   ar
    24    17    18   ar
    25     1    19    1
    26    19    20    1
    27    20    21    1
    28    25    26   ar
    29    26    27   ar
    30    27    34    1
    31    34    35    1
    32    35    36    1
    33    36    37    1
    34    37    38    1
    35    27    28   ar
    36    28    23   ar
    37     9     4    1
    38    18    13   ar
    39    21    19    1
    40     6    11    1
    41    10    12    1
@<TRIPOS>MOLECULE
*****
 38 41 0 0 0
SMALL
GASTEIGER

@<TRIPOS>ATOM
      1 N          62.0751   88.3969   11.0536 N.am    1  UNL1       -0.2770
      2 C          62.0658   87.8639    9.6515 C.2     1  UNL1        0.2294
      3 O          62.7425   87.4506    9.5691 O.2     1  UNL1       -0.2747
      4 C          60.9118   88.1659    8.7420 C.3     1  UNL1        0.1208
      5 C          60.5748   89.5882    8.4049 C.3     1  UNL1        0.0804
      6 N          59.4208   89.8901    7.4955 N.3     1  UNL1       -0.2969
      7 C          58.6039   88.7698    6.9230 C.3     1  UNL1        0.0714
      8 C          58.9410   87.3476    7.2601 C.3     1  UNL1        0.0487
      9 C          60.0950   87.0456    8.1696 C.3     1  UNL1        0.1177
     10 O          59.6218   85.6525    7.8778 O.3     1  UNL1       -0.3821
     11 H          59.7978   90.4133    6.7052 H       1  UNL1        0.1233
     12 H          58.8562   85.6889    7.2832 H       1  UNL1        0.2107
     13 C          61.0846   86.2599    8.9777 C.ar    1  UNL1        0.0023
     14 C          60.8309   86.0066   10.4343 C.ar    1  UNL1       -0.0020
     15 C          61.8206   85.2208   11.2424 C.ar    1  UNL1       -0.0002
     16 C          63.0640   84.6883   10.5940 C.ar    1  UNL1       -0.0000
     17 C          63.3177   84.9415    9.1375 C.ar    1  UNL1       -0.0002
     18 C          62.3280   85.7273    8.3293 C.ar    1  UNL1       -0.0020
     19 C          60.9304   89.2317   11.5462 C.3     1  UNL1        0.0758
     20 C          59.6067   89.3393   12.2435 C.3     1  UNL1        0.0215
     21 C          60.2715   90.5701   11.7022 C.3     1  UNL1        0.0215
     22 C          63.2291   88.0949   11.9631 C.3     1  UNL1        0.1201
     23 C          63.5067   89.5060   15.6620 C.ar    1  UNL1       -0.0194
     24 C          63.1985   88.5925   14.5129 C.ar    1  UNL1       -0.0067
     25 C          63.5374   89.0085   13.1122 C.ar    1  UNL1        0.0004
     26 C          64.1845   90.3381   12.8606 C.ar    1  UNL1        0.0343
     27 C          64.4928   91.2516   14.0097 C.ar    1  UNL1        0.1381
     28 C          64.1539   90.8355   15.4104 C.ar    1  UNL1        0.0326
     29 C          63.1678   89.0899   17.0628 C.3     1  UNL1        0.0290
     30 C          63.1707   87.6369   17.4350 C.3     1  UNL1        0.0367
     31 C          61.9252   86.8176   17.2691 C.3     1  UNL1        0.1426
     32 C          63.1757   85.0632   15.8171 C.3     1  UNL1        0.1741
     33 O          62.0056   85.4423   16.6757 O.3     1  UNL1       -0.3511
     34 O          65.1400   92.5813   13.7580 O.3     1  UNL1       -0.4728
     35 C          66.4485   92.6523   13.0283 C.3     1  UNL1        0.2373
     36 C          67.6636   91.9843   13.6003 C.3     1  UNL1        0.1894
     37 O          68.6048   92.7598   14.4736 O.3     1  UNL1       -0.3471
     38 C          68.1877   93.1568   15.8587 C.3     1  UNL1        0.1743
@<TRIPOS>BOND
     1    32    33    1
     2    33    31    1
     3    31    30    1
     4    30    29    1
     5    29    23    1
     6    23    24   ar
     7    24    25   ar
     8    25    22    1
     9    22     1    1
    10     1     2   am
    11     2     3    2
    12     4     2    1
    13     4     5    1
    14     5     6    1
    15     6     7    1
    16     7     8    1
    17     8     9    1
    18     9    10    1
    19     9    13    1
    20    13    14   ar
    21    14    15   ar
    22    15    16   ar
    23    16    17   ar
    24    17    18   ar
    25     1    19    1
    26    19    20    1
    27    20    21    1
    28    25    26   ar
    29    26    27   ar
    30    27    34    1
    31    34    35    1
    32    35    36    1
    33    36    37    1
    34    37    38    1
    35    27    28   ar
    36    28    23   ar
    37     9     4    1
    38    18    13   ar
    39    21    19    1
    40     6    11    1
    41    10    12    1
@<TRIPOS>MOLECULE
*****
 38 41 0 0 0
SMALL
GASTEIGER

@<TRIPOS>ATOM
      1 N          63.4710   86.0602   13.0459 N.am    1  UNL1       -0.2770
      2 C          64.0717   84.7641   13.5036 C.2     1  UNL1        0.2294
      3 O          64.5260   84.9429   14.1338 O.2     1  UNL1       -0.2747
      4 C          63.7510   83.4911   12.7778 C.3     1  UNL1        0.1208
      5 C          64.2073   83.2998   11.3617 C.3     1  UNL1        0.0804
      6 N          63.8866   82.0269   10.6359 N.3     1  UNL1       -0.2969
      7 C          63.1096   80.9453   11.3262 C.3     1  UNL1        0.0714
      8 C          62.6534   81.1366   12.7422 C.3     1  UNL1        0.0487
      9 C          62.9740   82.4095   13.4680 C.3     1  UNL1        0.1177
     10 O          62.2171   81.6823   14.5395 O.3     1  UNL1       -0.3821
     11 H          64.7768   81.6162   10.3544 H       1  UNL1        0.1233
     12 H          61.9368   80.8156   14.2060 H       1  UNL1        0.2107
     13 C          63.0319   83.4299   14.5659 C.ar    1  UNL1        0.0023
     14 C          61.8277   84.2700   14.8733 C.ar    1  UNL1       -0.0020
     15 C          61.8857   85.2903   15.9712 C.ar    1  UNL1       -0.0002
     16 C          63.1476   85.4706   16.7619 C.ar    1  UNL1       -0.0000
     17 C          64.3516   84.6306   16.4546 C.ar    1  UNL1       -0.0002
     18 C          64.2938   83.6102   15.3565 C.ar    1  UNL1       -0.0020
     19 C          62.5497   86.0833   11.8625 C.3     1  UNL1        0.0758
     20 C          62.3384   86.0129   10.3791 C.3     1  UNL1        0.0215
     21 C          61.1651   86.1936   11.2960 C.3     1  UNL1        0.0215
     22 C          63.7917   87.3331   13.7718 C.3     1  UNL1        0.1201
     23 C          62.7663   90.0753   11.0924 C.ar    1  UNL1       -0.0194
     24 C          62.8731   88.7591   11.8038 C.ar    1  UNL1       -0.0067
     25 C          63.6849   88.6494   13.0604 C.ar    1  UNL1        0.0004
     26 C          64.3898   89.8559   13.6056 C.ar    1  UNL1        0.0343
     27 C          64.2830   91.1721   12.8942 C.ar    1  UNL1        0.1381
     28 C          63.4713   91.2818   11.6376 C.ar    1  UNL1        0.0326
     29 C          61.9546   90.1850    9.8358 C.3     1  UNL1        0.0290
     30 C          60.5613   89.6312    9.7922 C.3     1  UNL1        0.0367
     31 C          60.1055   88.8402    8.6020 C.3     1  UNL1        0.1426
     32 C          59.3077   86.5413    7.6915 C.3     1  UNL1        0.1741
     33 O          59.3601   87.5532    8.7976 O.3     1  UNL1       -0.3511
     34 O          64.9880   92.3788   13.4394 O.3     1  UNL1       -0.4728
     35 C          66.4010   92.6709   13.0294 C.3     1  UNL1        0.2373
     36 C          67.5381   91.9500   13.6907 C.3     1  UNL1        0.1894
     37 O          68.6520   92.7287   14.3253 O.3     1  UNL1       -0.3471
     38 C          68.4483   93.3739   15.6640 C.3     1  UNL1        0.1743
@<TRIPOS>BOND
     1    32    33    1
     2    33    31    1
     3    31    30    1
     4    30    29    1
     5    29    23    1
     6    23    24   ar
     7    24    25   ar
     8    25    22    1
     9    22     1    1
    10     1     2   am
    11     2     3    2
    12     4     2    1
    13     4     5    1
    14     5     6    1
    15     6     7    1
    16     7     8    1
    17     8     9    1
    18     9    10    1
    19     9    13    1
    20    13    14   ar
    21    14    15   ar
    22    15    16   ar
    23    16    17   ar
    24    17    18   ar
    25     1    19    1
    26    19    20    1
    27    20    21    1
    28    25    26   ar
    29    26    27   ar
    30    27    34    1
    31    34    35    1
    32    35    36    1
    33    36    37    1
    34    37    38    1
    35    27    28   ar
    36    28    23   ar
    37     9     4    1
    38    18    13   ar
    39    21    19    1
    40     6    11    1
    41    10    12    1
@<TRIPOS>MOLECULE
*****
 38 41 0 0 0
SMALL
GASTEIGER

@<TRIPOS>ATOM
      1 N          63.4423   85.9890   12.9937 N.am    1  UNL1       -0.2770
      2 C          64.1337   84.6840   13.2567 C.2     1  UNL1        0.2294
      3 O          64.5628   84.7924   13.9197 O.2     1  UNL1       -0.2747
      4 C          63.9238   83.5238   12.3294 C.3     1  UNL1        0.1208
      5 C          64.5168   83.5479   10.9518 C.3     1  UNL1        0.0804
      6 N          64.3068   82.3877   10.0245 N.3     1  UNL1       -0.2969
      7 C          63.5038   81.2034   10.4749 C.3     1  UNL1        0.0714
      8 C          62.9108   81.1794   11.8524 C.3     1  UNL1        0.0487
      9 C          63.1208   82.3396   12.7797 C.3     1  UNL1        0.1177
     10 O          62.2907   81.4511   13.6580 O.3     1  UNL1       -0.3821
     11 H          65.2322   82.0385    9.7755 H       1  UNL1        0.1233
     12 H          62.0710   80.6368   13.1788 H       1  UNL1        0.2107
     13 C          63.0425   83.1912   14.0120 C.ar    1  UNL1        0.0023
     14 C          64.2044   83.2488   14.9590 C.ar    1  UNL1       -0.0020
     15 C          64.1260   84.1004   16.1913 C.ar    1  UNL1       -0.0002
     16 C          62.8858   84.8945   16.4766 C.ar    1  UNL1       -0.0000
     17 C          61.7240   84.8370   15.5296 C.ar    1  UNL1       -0.0002
     18 C          61.8024   83.9853   14.2973 C.ar    1  UNL1       -0.0020
     19 C          62.5410   86.1337   11.8035 C.3     1  UNL1        0.0758
     20 C          62.3515   86.1883   10.3166 C.3     1  UNL1        0.0215
     21 C          61.1694   86.3298   11.2290 C.3     1  UNL1        0.0215
     22 C          63.6523   87.1492   13.9210 C.3     1  UNL1        0.1201
     23 C          63.2277   90.2563   11.4888 C.ar    1  UNL1       -0.0194
     24 C          63.1353   88.8639   12.0388 C.ar    1  UNL1       -0.0067
     25 C          63.7448   88.5417   13.3710 C.ar    1  UNL1        0.0004
     26 C          64.4467   89.6120   14.1532 C.ar    1  UNL1        0.0343
     27 C          64.5391   91.0044   13.6031 C.ar    1  UNL1        0.1381
     28 C          63.9296   91.3265   12.2709 C.ar    1  UNL1        0.0326
     29 C          62.6183   90.5785   10.1566 C.3     1  UNL1        0.0290
     30 C          61.6185   89.6434    9.5433 C.3     1  UNL1        0.0367
     31 C          60.1870   89.6778    9.9900 C.3     1  UNL1        0.1426
     32 C          59.1970   89.6406   12.3918 C.3     1  UNL1        0.1741
     33 O          59.8122   90.3970   11.2519 O.3     1  UNL1       -0.3511
     34 O          65.2410   92.0747   14.3853 O.3     1  UNL1       -0.4728
     35 C          66.4475   92.7552   13.8098 C.3     1  UNL1        0.2373
     36 C          67.7663   92.0411   13.7753 C.3     1  UNL1        0.1894
     37 O          68.9669   92.6511   14.4359 O.3     1  UNL1       -0.3471
     38 C          68.8072   93.4371   15.7034 C.3     1  UNL1        0.1743
@<TRIPOS>BOND
     1    32    33    1
     2    33    31    1
     3    31    30    1
     4    30    29    1
     5    29    23    1
     6    23    24   ar
     7    24    25   ar
     8    25    22    1
     9    22     1    1
    10     1     2   am
    11     2     3    2
    12     4     2    1
    13     4     5    1
    14     5     6    1
    15     6     7    1
    16     7     8    1
    17     8     9    1
    18     9    10    1
    19     9    13    1
    20    13    14   ar
    21    14    15   ar
    22    15    16   ar
    23    16    17   ar
    24    17    18   ar
    25     1    19    1
    26    19    20    1
    27    20    21    1
    28    25    26   ar
    29    26    27   ar
    30    27    34    1
    31    34    35    1
    32    35    36    1
    33    36    37    1
    34    37    38    1
    35    27    28   ar
    36    28    23   ar
    37     9     4    1
    38    18    13   ar
    39    21    19    1
    40     6    11    1
    41    10    12    1
@<TRIPOS>MOLECULE
*****
 38 41 0 0 0
SMALL
GASTEIGER

@<TRIPOS>ATOM
      1 N          62.4730   88.2388   11.8401 N.am    1  UNL1       -0.2770
      2 C          62.0434   88.5160   10.4298 C.2     1  UNL1        0.2294
      3 O          61.9068   89.3005   10.3919 O.2     1  UNL1       -0.2747
      4 C          61.9536   87.3936    9.4388 C.3     1  UNL1        0.1208
      5 C          63.1949   86.6650    9.0163 C.3     1  UNL1        0.0804
      6 N          63.1051   85.5426    8.0253 N.3     1  UNL1       -0.2969
      7 C          61.7739   85.1487    7.4568 C.3     1  UNL1        0.0714
      8 C          60.5328   85.8773    7.8793 C.3     1  UNL1        0.0487
      9 C          60.6226   86.9997    8.8703 C.3     1  UNL1        0.1177
     10 O          59.1444   86.9951    8.6153 O.3     1  UNL1       -0.3821
     11 H          63.4865   84.7146    8.4828 H       1  UNL1        0.1233
     12 H          58.9291   86.2997    7.9742 H       1  UNL1        0.2107
     13 C          60.1991   88.1205    9.7727 C.ar    1  UNL1        0.0023
     14 C          59.6999   87.8224   11.1555 C.ar    1  UNL1       -0.0020
     15 C          59.2764   88.9433   12.0578 C.ar    1  UNL1       -0.0002
     16 C          59.3521   90.3623   11.5775 C.ar    1  UNL1       -0.0000
     17 C          59.8512   90.6605   10.1949 C.ar    1  UNL1       -0.0002
     18 C          60.2748   89.5396    9.2924 C.ar    1  UNL1       -0.0020
     19 C          62.8126   86.8393   12.2592 C.3     1  UNL1        0.0758
     20 C          63.5787   85.8966   13.1393 C.3     1  UNL1        0.0215
     21 C          62.6350   85.3578   12.1053 C.3     1  UNL1        0.0215
     22 C          62.5628   89.3613   12.8311 C.3     1  UNL1        0.1201
     23 C          65.8576   91.2962   13.9037 C.ar    1  UNL1       -0.0194
     24 C          64.6915   90.3535   13.9420 C.ar    1  UNL1       -0.0067
     25 C          63.7289   90.3041   12.7927 C.ar    1  UNL1        0.0004
     26 C          63.9323   91.1975   11.6051 C.ar    1  UNL1        0.0343
     27 C          65.0983   92.1402   11.5668 C.ar    1  UNL1        0.1381
     28 C          66.0610   92.1896   12.7161 C.ar    1  UNL1        0.0326
     29 C          66.8202   91.3456   15.0530 C.3     1  UNL1        0.0290
     30 C          66.9483   92.5965   15.8708 C.3     1  UNL1        0.0367
     31 C          67.9357   93.6538   15.4745 C.3     1  UNL1        0.1426
     32 C          69.6443   92.3515   14.0134 C.3     1  UNL1        0.1741
     33 O          69.3525   93.2761   15.1580 O.3     1  UNL1       -0.3511
     34 O          65.3018   93.0337   10.3791 O.3     1  UNL1       -0.4728
     35 C          66.0825   94.3064   10.5230 C.3     1  UNL1        0.2373
     36 C          67.2440   94.5805    9.6143 C.3     1  UNL1        0.1894
     37 O          68.5067   93.7823    9.7495 O.3     1  UNL1       -0.3471
     38 C          68.6104   92.4289    9.1111 C.3     1  UNL1        0.1743
@<TRIPOS>BOND
     1    32    33    1
     2    33    31    1
     3    31    30    1
     4    30    29    1
     5    29    23    1
     6    23    24   ar
     7    24    25   ar
     8    25    22    1
     9    22     1    1
    10     1     2   am
    11     2     3    2
    12     4     2    1
    13     4     5    1
    14     5     6    1
    15     6     7    1
    16     7     8    1
    17     8     9    1
    18     9    10    1
    19     9    13    1
    20    13    14   ar
    21    14    15   ar
    22    15    16   ar
    23    16    17   ar
    24    17    18   ar
    25     1    19    1
    26    19    20    1
    27    20    21    1
    28    25    26   ar
    29    26    27   ar
    30    27    34    1
    31    34    35    1
    32    35    36    1
    33    36    37    1
    34    37    38    1
    35    27    28   ar
    36    28    23   ar
    37     9     4    1
    38    18    13   ar
    39    21    19    1
    40     6    11    1
    41    10    12    1
@<TRIPOS>MOLECULE
*****
 38 41 0 0 0
SMALL
GASTEIGER

@<TRIPOS>ATOM
      1 N          62.4850   88.1880   11.8567 N.am    1  UNL1       -0.2770
      2 C          62.0629   88.4848   10.4482 C.2     1  UNL1        0.2294
      3 O          61.9257   89.2696   10.4207 O.2     1  UNL1       -0.2747
      4 C          61.9798   87.3766    9.4408 C.3     1  UNL1        0.1208
      5 C          63.2218   86.6439    9.0276 C.3     1  UNL1        0.0804
      6 N          63.1386   85.5356    8.0203 N.3     1  UNL1       -0.2969
      7 C          61.8134   85.1600    7.4261 C.3     1  UNL1        0.0714
      8 C          60.5715   85.8926    7.8393 C.3     1  UNL1        0.0487
      9 C          60.6547   87.0009    8.8467 C.3     1  UNL1        0.1177
     10 O          59.1807   87.0115    8.5689 O.3     1  UNL1       -0.3821
     11 H          63.5065   84.6985    8.4724 H       1  UNL1        0.1233
     12 H          58.9700   86.3265    7.9152 H       1  UNL1        0.2107
     13 C          60.2260   88.1129    9.7575 C.ar    1  UNL1        0.0023
     14 C          59.6967   87.7998   11.1257 C.ar    1  UNL1       -0.0020
     15 C          59.2680   88.9118   12.0366 C.ar    1  UNL1       -0.0002
     16 C          59.3685   90.3369   11.5793 C.ar    1  UNL1       -0.0000
     17 C          59.8977   90.6500   10.2112 C.ar    1  UNL1       -0.0002
     18 C          60.3265   89.5379    9.3003 C.ar    1  UNL1       -0.0020
     19 C          62.8238   86.7830   12.2578 C.3     1  UNL1        0.0758
     20 C          63.6165   85.8278   13.1000 C.3     1  UNL1        0.0215
     21 C          62.6181   85.3045   12.1104 C.3     1  UNL1        0.0215
     22 C          62.5681   89.2963   12.8641 C.3     1  UNL1        0.1201
     23 C          65.0458   92.1405   11.6303 C.ar    1  UNL1       -0.0194
     24 C          63.8927   91.1817   11.6637 C.ar    1  UNL1       -0.0067
     25 C          63.7213   90.2551   12.8308 C.ar    1  UNL1        0.0004
     26 C          64.7028   90.2873   13.9645 C.ar    1  UNL1        0.0343
     27 C          65.8559   91.2461   13.9312 C.ar    1  UNL1        0.1381
     28 C          66.0274   92.1727   12.7641 C.ar    1  UNL1        0.0326
     29 C          65.2173   93.0670   10.4633 C.3     1  UNL1        0.0290
     30 C          66.1550   94.2335   10.5631 C.3     1  UNL1        0.0367
     31 C          67.2196   94.4309    9.5251 C.3     1  UNL1        0.1426
     32 C          68.8510   92.4473    9.1326 C.3     1  UNL1        0.1741
     33 O          68.5702   93.8041    9.7073 O.3     1  UNL1       -0.3511
     34 O          66.8375   91.2784   15.0649 O.3     1  UNL1       -0.4728
     35 C          66.9448   92.4993   15.9297 C.3     1  UNL1        0.2373
     36 C          67.9290   93.5779   15.5858 C.3     1  UNL1        0.1894
     37 O          69.3122   93.2146   15.1335 O.3     1  UNL1       -0.3471
     38 C          69.5016   92.2549   13.9963 C.3     1  UNL1        0.1743
@<TRIPOS>BOND
     1    32    33    1
     2    33    31    1
     3    31    30    1
     4    30    29    1
     5    29    23    1
     6    23    24   ar
     7    24    25   ar
     8    25    22    1
     9    22     1    1
    10     1     2   am
    11     2     3    2
    12     4     2    1
    13     4     5    1
    14     5     6    1
    15     6     7    1
    16     7     8    1
    17     8     9    1
    18     9    10    1
    19     9    13    1
    20    13    14   ar
    21    14    15   ar
    22    15    16   ar
    23    16    17   ar
    24    17    18   ar
    25     1    19    1
    26    19    20    1
    27    20    21    1
    28    25    26   ar
    29    26    27   ar
    30    27    34    1
    31    34    35    1
    32    35    36    1
    33    36    37    1
    34    37    38    1
    35    27    28   ar
    36    28    23   ar
    37     9     4    1
    38    18    13   ar
    39    21    19    1
    40     6    11    1
    41    10    12    1
@<TRIPOS>MOLECULE
*****
 38 41 0 0 0
SMALL
GASTEIGER

@<TRIPOS>ATOM
      1 N          60.5015   94.8810   -1.5185 N.am    1  UNL1       -0.2770
      2 C          61.4350   93.7080   -1.4652 C.2     1  UNL1        0.2294
      3 O          61.4222   93.3838   -2.1934 O.2     1  UNL1       -0.2747
      4 C          62.1552   93.3799   -0.1910 C.3     1  UNL1        0.1208
      5 C          61.3897   92.8653    0.9920 C.3     1  UNL1        0.0804
      6 N          62.1099   92.5372    2.2662 N.3     1  UNL1       -0.2969
      7 C          63.5955   92.7237    2.3575 C.3     1  UNL1        0.0714
      8 C          64.3609   93.2383    1.1746 C.3     1  UNL1        0.0487
      9 C          63.6407   93.5664   -0.0997 C.3     1  UNL1        0.1177
     10 O          65.0456   93.9080   -0.4990 O.3     1  UNL1       -0.3821
     11 H          61.9238   91.5542    2.4649 H       1  UNL1        0.1233
     12 H          65.6432   93.7418    0.2467 H       1  UNL1        0.2107
     13 C          63.4085   94.0131   -1.5126 C.ar    1  UNL1        0.0023
     14 C          63.2844   92.9976   -2.6095 C.ar    1  UNL1       -0.0020
     15 C          63.0521   93.4444   -4.0225 C.ar    1  UNL1       -0.0002
     16 C          62.9439   94.9067   -4.3385 C.ar    1  UNL1       -0.0000
     17 C          63.0680   95.9223   -3.2417 C.ar    1  UNL1       -0.0002
     18 C          63.3002   95.4755   -1.8286 C.ar    1  UNL1       -0.0020
     19 C          60.2883   95.7259   -0.2976 C.3     1  UNL1        0.0758
     20 C          60.8420   96.5815    0.8030 C.3     1  UNL1        0.0215
     21 C          59.3652   96.3335    0.7166 C.3     1  UNL1        0.0215
     22 C          59.7814   95.2091   -2.7928 C.3     1  UNL1        0.1201
     23 C          57.1783   92.8307   -4.6141 C.ar    1  UNL1       -0.0194
     24 C          58.4590   93.5337   -4.2741 C.ar    1  UNL1       -0.0067
     25 C          58.5006   94.5062   -3.1328 C.ar    1  UNL1        0.0004
     26 C          57.2616   94.7757   -2.3315 C.ar    1  UNL1        0.0343
     27 C          55.9809   94.0727   -2.6716 C.ar    1  UNL1        0.1381
     28 C          55.9393   93.1003   -3.8129 C.ar    1  UNL1        0.0326
     29 C          57.1367   91.8583   -5.7554 C.3     1  UNL1        0.0290
     30 C          56.0469   91.9526   -6.7818 C.3     1  UNL1        0.0367
     31 C          55.0259   90.8595   -6.8941 C.3     1  UNL1        0.1426
     32 C          53.4420   89.1514   -5.7435 C.3     1  UNL1        0.1741
     33 O          54.5990   90.1033   -5.6710 O.3     1  UNL1       -0.3511
     34 O          54.7417   94.3422   -1.8703 O.3     1  UNL1       -0.4728
     35 C          54.3580   95.7528   -1.5341 C.3     1  UNL1        0.2373
     36 C          52.9208   96.1764   -1.6058 C.3     1  UNL1        0.1894
     37 O          51.9100   95.2904   -2.2713 O.3     1  UNL1       -0.3471
     38 C          51.0689   95.8230   -3.3933 C.3     1  UNL1        0.1743
@<TRIPOS>BOND
     1    32    33    1
     2    33    31    1
     3    31    30    1
     4    30    29    1
     5    29    23    1
     6    23    24   ar
     7    24    25   ar
     8    25    22    1
     9    22     1    1
    10     1     2   am
    11     2     3    2
    12     4     2    1
    13     4     5    1
    14     5     6    1
    15     6     7    1
    16     7     8    1
    17     8     9    1
    18     9    10    1
    19     9    13    1
    20    13    14   ar
    21    14    15   ar
    22    15    16   ar
    23    16    17   ar
    24    17    18   ar
    25     1    19    1
    26    19    20    1
    27    20    21    1
    28    25    26   ar
    29    26    27   ar
    30    27    34    1
    31    34    35    1
    32    35    36    1
    33    36    37    1
    34    37    38    1
    35    27    28   ar
    36    28    23   ar
    37     9     4    1
    38    18    13   ar
    39    21    19    1
    40     6    11    1
    41    10    12    1
@<TRIPOS>MOLECULE
*****
 38 41 0 0 0
SMALL
GASTEIGER

@<TRIPOS>ATOM
      1 N          61.2822   95.7468   -0.8745 N.am    1  UNL1       -0.2770
      2 C          61.9804   94.4202   -0.9289 C.2     1  UNL1        0.2294
      3 O          62.1305   94.2824   -1.6995 O.2     1  UNL1       -0.2747
      4 C          62.2482   93.6612    0.3369 C.3     1  UNL1        0.1208
      5 C          61.1039   93.1687    1.1725 C.3     1  UNL1        0.0804
      6 N          61.3718   92.4097    2.4383 N.3     1  UNL1       -0.2969
      7 C          62.7839   92.1432    2.8684 C.3     1  UNL1        0.0714
      8 C          63.9281   92.6358    2.0329 C.3     1  UNL1        0.0487
      9 C          63.6602   93.3948    0.7671 C.3     1  UNL1        0.1177
     10 O          65.1602   93.3915    0.7564 O.3     1  UNL1       -0.3821
     11 H          60.9180   91.5016    2.3387 H       1  UNL1        0.1233
     12 H          65.4881   92.9212    1.5389 H       1  UNL1        0.2107
     13 C          63.9133   94.1526   -0.5023 C.ar    1  UNL1        0.0023
     14 C          64.1917   95.6258   -0.4536 C.ar    1  UNL1       -0.0020
     15 C          64.4447   96.3836   -1.7231 C.ar    1  UNL1       -0.0002
     16 C          64.4194   95.6683   -3.0414 C.ar    1  UNL1       -0.0000
     17 C          64.1411   94.1952   -3.0902 C.ar    1  UNL1       -0.0002
     18 C          63.8880   93.4373   -1.8206 C.ar    1  UNL1       -0.0020
     19 C          60.8520   96.3143    0.4457 C.3     1  UNL1        0.0758
     20 C          61.1905   96.7915    1.8268 C.3     1  UNL1        0.0215
     21 C          59.7683   96.8200    1.3511 C.3     1  UNL1        0.0215
     22 C          61.0144   96.5058   -2.1402 C.3     1  UNL1        0.1201
     23 C          60.3929   95.1410   -5.8146 C.ar    1  UNL1       -0.0194
     24 C          61.0376   95.8304   -4.6489 C.ar    1  UNL1       -0.0067
     25 C          60.3695   95.8163   -3.3060 C.ar    1  UNL1        0.0004
     26 C          59.0567   95.1128   -3.1288 C.ar    1  UNL1        0.0343
     27 C          58.4119   94.4234   -4.2945 C.ar    1  UNL1        0.1381
     28 C          59.0800   94.4375   -5.6374 C.ar    1  UNL1        0.0326
     29 C          61.0610   95.1550   -7.1575 C.3     1  UNL1        0.0290
     30 C          61.9732   94.0320   -7.5532 C.3     1  UNL1        0.0367
     31 C          63.1035   93.6310   -6.6523 C.3     1  UNL1        0.1426
     32 C          65.0195   91.9856   -6.0424 C.3     1  UNL1        0.1741
     33 O          63.8826   92.3812   -6.9374 O.3     1  UNL1       -0.3511
     34 O          57.0989   93.7199   -4.1173 O.3     1  UNL1       -0.4728
     35 C          55.9722   94.4038   -3.4014 C.3     1  UNL1        0.2373
     36 C          55.7110   94.1043   -1.9549 C.3     1  UNL1        0.1894
     37 O          56.1123   92.7786   -1.3792 O.3     1  UNL1       -0.3471
     38 C          57.4909   92.5908   -0.8189 C.3     1  UNL1        0.1743
@<TRIPOS>BOND
     1    32    33    1
     2    33    31    1
     3    31    30    1
     4    30    29    1
     5    29    23    1
     6    23    24   ar
     7    24    25   ar
     8    25    22    1
     9    22     1    1
    10     1     2   am
    11     2     3    2
    12     4     2    1
    13     4     5    1
    14     5     6    1
    15     6     7    1
    16     7     8    1
    17     8     9    1
    18     9    10    1
    19     9    13    1
    20    13    14   ar
    21    14    15   ar
    22    15    16   ar
    23    16    17   ar
    24    17    18   ar
    25     1    19    1
    26    19    20    1
    27    20    21    1
    28    25    26   ar
    29    26    27   ar
    30    27    34    1
    31    34    35    1
    32    35    36    1
    33    36    37    1
    34    37    38    1
    35    27    28   ar
    36    28    23   ar
    37     9     4    1
    38    18    13   ar
    39    21    19    1
    40     6    11    1
    41    10    12    1
