@<TRIPOS>MOLECULE
*****
 29 31 0 0 0
SMALL
GASTEIGER

@<TRIPOS>ATOM
      1 C          59.9539   88.4505    8.0328 C.ar    1  UNL1        0.1719
      2 C          60.6120   89.4515    8.9355 C.ar    1  UNL1        0.0359
      3 C          61.4400   88.9846   10.0958 C.ar    1  UNL1       -0.0157
      4 C          61.6099   87.5167   10.3535 C.ar    1  UNL1        0.0152
      5 C          60.9517   86.5158    9.4508 C.ar    1  UNL1        0.0412
      6 C          60.1238   86.9827    8.2905 C.ar    1  UNL1        0.1724
      7 C          62.4378   87.0498   11.5139 C.ar    1  UNL1        0.0628
      8 C          62.6077   85.5819   11.7715 C.ar    1  UNL1        0.0593
      9 C          63.4357   85.1150   12.9319 C.ar    1  UNL1        0.1996
     10 O          63.6055   83.6470   13.1895 O.2     1  UNL1       -0.2864
     11 C          64.0938   86.1160   13.8346 C.ar    1  UNL1        0.0701
     12 C          63.9240   87.5839   13.5769 C.ar    1  UNL1        0.0801
     13 N          63.0960   88.0508   12.4166 N.ar    1  UNL1       -0.3274
     14 C          62.9261   89.5187   12.1589 C.3     1  UNL1        0.0898
     15 C          62.0981   89.9856   10.9986 C.3     1  UNL1        0.0490
     16 C          64.9218   85.6491   14.9950 C.2     1  UNL1        0.0774
     17 O          64.2957   85.4951   16.3493 O.co2   1  UNL1       -0.5444
     18 O          66.3759   85.3361   14.8010 O.co2   1  UNL1       -0.5444
     19 C          63.5843   90.5197   13.0616 C.3     1  UNL1        0.0211
     20 C          64.4357   91.6089   12.4794 C.3     1  UNL1        0.0019
     21 C          63.3910   90.4316   14.5465 C.3     1  UNL1        0.0019
     22 O          59.4656   85.9816    7.3878 O.3     1  UNL1       -0.4684
     23 C          60.2929   84.9426    6.6906 C.3     1  UNL1        0.2526
     24 O          59.1259   88.9175    6.8724 O.3     1  UNL1       -0.4723
     25 C          59.6141   90.0407    6.0065 C.3     1  UNL1        0.2082
     26 C          58.6314   90.9757    5.3661 C.3     1  UNL1        0.0794
     27 C          59.1032   92.2734    4.7800 C.3     1  UNL1        0.1461
     28 C          60.2859   93.1055    2.6215 C.3     1  UNL1        0.1741
     29 O          59.1058   92.4675    3.2926 O.3     1  UNL1       -0.3510
@<TRIPOS>UNITY_ATOM_ATTR
17 1
charge -1
@<TRIPOS>BOND
     1    28    29    1
     2    29    27    1
     3    27    26    1
     4    26    25    1
     5    25    24    1
     6    24     1    1
     7     1     2   ar
     8     2     3   ar
     9     3     4   ar
    10     4     5   ar
    11     5     6   ar
    12     6    22    1
    13    22    23    1
    14     4     7    1
    15     7     8   ar
    16     8     9   ar
    17     9    10    2
    18     9    11   ar
    19    11    16    1
    20    16    17   ar
    21    16    18   ar
    22    11    12   ar
    23    12    13   ar
    24    13    14    1
    25    14    19    1
    26    19    20    1
    27    19    21    1
    28    14    15    1
    29     6     1   ar
    30    13     7   ar
    31    15     3    1
@<TRIPOS>MOLECULE
*****
 29 31 0 0 0
SMALL
GASTEIGER

@<TRIPOS>ATOM
      1 C          61.4788   90.0993   10.5855 C.ar    1  UNL1        0.1719
      2 C          62.6598   90.7575    9.9358 C.ar    1  UNL1        0.0359
      3 C          63.7750   91.2991   10.7802 C.ar    1  UNL1       -0.0157
      4 C          63.7093   91.1826   12.2742 C.ar    1  UNL1        0.0152
      5 C          62.5283   90.5244   12.9238 C.ar    1  UNL1        0.0412
      6 C          61.4131   89.9828   12.0795 C.ar    1  UNL1        0.1724
      7 C          64.8245   91.7242   13.1185 C.ar    1  UNL1        0.0628
      8 C          64.7587   91.6077   14.6125 C.ar    1  UNL1        0.0593
      9 C          65.8740   92.1493   15.4568 C.ar    1  UNL1        0.1996
     10 O          65.8082   92.0327   16.9509 O.2     1  UNL1       -0.2864
     11 C          67.0549   92.8074   14.8072 C.ar    1  UNL1        0.0701
     12 C          67.1207   92.9240   13.3132 C.ar    1  UNL1        0.0801
     13 N          66.0055   92.3824   12.4688 N.ar    1  UNL1       -0.3274
     14 C          66.0712   92.4989   10.9748 C.3     1  UNL1        0.0898
     15 C          64.9560   91.9573   10.1304 C.3     1  UNL1        0.0490
     16 C          68.1702   93.3491   15.6515 C.2     1  UNL1        0.0774
     17 O          68.3338   94.8308   15.8172 O.co2   1  UNL1       -0.5444
     18 O          69.1217   92.4089   16.3302 O.co2   1  UNL1       -0.5444
     19 C          67.2522   93.1571   10.3251 C.3     1  UNL1        0.0211
     20 C          67.2478   94.6379   10.0856 C.3     1  UNL1        0.0019
     21 C          68.4376   92.3345    9.9150 C.3     1  UNL1        0.0019
     22 O          60.2320   89.3246   12.7292 O.3     1  UNL1       -0.4684
     23 C          58.8408   89.7433   12.3560 C.3     1  UNL1        0.2526
     24 O          60.3636   89.5577    9.7411 O.3     1  UNL1       -0.4723
     25 C          60.5001   88.2128    9.0911 C.3     1  UNL1        0.2082
     26 C          61.4892   87.2191    9.6242 C.3     1  UNL1        0.0794
     27 C          61.1637   86.4221   10.8527 C.3     1  UNL1        0.1461
     28 C          62.7849   84.9440   12.2443 C.3     1  UNL1        0.1741
     29 O          62.1793   86.2839   11.9478 O.3     1  UNL1       -0.3510
@<TRIPOS>UNITY_ATOM_ATTR
17 1
charge -1
@<TRIPOS>BOND
     1    28    29    1
     2    29    27    1
     3    27    26    1
     4    26    25    1
     5    25    24    1
     6    24     1    1
     7     1     2   ar
     8     2     3   ar
     9     3     4   ar
    10     4     5   ar
    11     5     6   ar
    12     6    22    1
    13    22    23    1
    14     4     7    1
    15     7     8   ar
    16     8     9   ar
    17     9    10    2
    18     9    11   ar
    19    11    16    1
    20    16    17   ar
    21    16    18   ar
    22    11    12   ar
    23    12    13   ar
    24    13    14    1
    25    14    19    1
    26    19    20    1
    27    19    21    1
    28    14    15    1
    29     6     1   ar
    30    13     7   ar
    31    15     3    1
@<TRIPOS>MOLECULE
*****
 29 31 0 0 0
SMALL
GASTEIGER

@<TRIPOS>ATOM
      1 C          61.5158   90.0331   10.7067 C.ar    1  UNL1        0.1719
      2 C          62.6557   90.6760    9.9737 C.ar    1  UNL1        0.0359
      3 C          63.8071   91.2573   10.7394 C.ar    1  UNL1       -0.0157
      4 C          63.8188   91.1956   12.2381 C.ar    1  UNL1        0.0152
      5 C          62.6789   90.5526   12.9711 C.ar    1  UNL1        0.0412
      6 C          61.5274   89.9714   12.2054 C.ar    1  UNL1        0.1724
      7 C          64.9702   91.7768   13.0038 C.ar    1  UNL1        0.0628
      8 C          64.9818   91.7151   14.5024 C.ar    1  UNL1        0.0593
      9 C          66.1333   92.2964   15.2681 C.ar    1  UNL1        0.1996
     10 O          66.1449   92.2347   16.7668 O.2     1  UNL1       -0.2864
     11 C          67.2732   92.9394   14.5351 C.ar    1  UNL1        0.0701
     12 C          67.2615   93.0011   13.0365 C.ar    1  UNL1        0.0801
     13 N          66.1101   92.4198   12.2708 N.ar    1  UNL1       -0.3274
     14 C          66.0985   92.4815   10.7720 C.3     1  UNL1        0.0898
     15 C          64.9470   91.9003   10.0064 C.3     1  UNL1        0.0490
     16 C          68.4246   93.5206   15.3008 C.2     1  UNL1        0.0774
     17 O          69.8298   93.1220   14.9595 O.co2   1  UNL1       -0.5444
     18 O          68.1709   94.5005   16.4078 O.co2   1  UNL1       -0.5444
     19 C          67.2384   93.1245   10.0391 C.3     1  UNL1        0.0211
     20 C          67.2034   94.5937    9.7386 C.3     1  UNL1        0.0019
     21 C          68.4132   92.2983    9.6066 C.3     1  UNL1        0.0019
     22 O          60.3875   89.3284   12.9384 O.3     1  UNL1       -0.4684
     23 C          58.9767   89.7436   12.6434 C.3     1  UNL1        0.2526
     24 O          60.3644   89.4518    9.9410 O.3     1  UNL1       -0.4723
     25 C          60.2101   87.9637    9.8335 C.3     1  UNL1        0.2082
     26 C          60.2689   87.2987    8.4902 C.3     1  UNL1        0.0794
     27 C          59.1380   87.4681    7.5193 C.3     1  UNL1        0.1461
     28 C          59.4231   89.6718    6.1731 C.3     1  UNL1        0.1741
     29 O          58.6570   88.8430    7.1609 O.3     1  UNL1       -0.3510
@<TRIPOS>UNITY_ATOM_ATTR
17 1
charge -1
@<TRIPOS>BOND
     1    28    29    1
     2    29    27    1
     3    27    26    1
     4    26    25    1
     5    25    24    1
     6    24     1    1
     7     1     2   ar
     8     2     3   ar
     9     3     4   ar
    10     4     5   ar
    11     5     6   ar
    12     6    22    1
    13    22    23    1
    14     4     7    1
    15     7     8   ar
    16     8     9   ar
    17     9    10    2
    18     9    11   ar
    19    11    16    1
    20    16    17   ar
    21    16    18   ar
    22    11    12   ar
    23    12    13   ar
    24    13    14    1
    25    14    19    1
    26    19    20    1
    27    19    21    1
    28    14    15    1
    29     6     1   ar
    30    13     7   ar
    31    15     3    1
@<TRIPOS>MOLECULE
*****
 29 31 0 0 0
SMALL
GASTEIGER

@<TRIPOS>ATOM
      1 C          63.8269   84.5753   13.2280 C.ar    1  UNL1        0.1719
      2 C          63.8117   86.0752   13.2341 C.ar    1  UNL1        0.0359
      3 C          63.0453   86.8217   12.1827 C.ar    1  UNL1       -0.0157
      4 C          62.2940   86.0684   11.1254 C.ar    1  UNL1        0.0152
      5 C          62.3092   84.5685   11.1194 C.ar    1  UNL1        0.0412
      6 C          63.0756   83.8220   12.1707 C.ar    1  UNL1        0.1724
      7 C          61.5276   86.8149   10.0741 C.ar    1  UNL1        0.0628
      8 C          60.7763   86.0615    9.0167 C.ar    1  UNL1        0.0593
      9 C          60.0099   86.8081    7.9654 C.ar    1  UNL1        0.1996
     10 O          59.2586   86.0546    6.9080 O.2     1  UNL1       -0.2864
     11 C          59.9947   88.3079    7.9714 C.ar    1  UNL1        0.0701
     12 C          60.7460   89.0613    9.0288 C.ar    1  UNL1        0.0801
     13 N          61.5124   88.3148   10.0801 N.ar    1  UNL1       -0.3274
     14 C          62.2637   89.0682   11.1375 C.3     1  UNL1        0.0898
     15 C          63.0301   88.3217   12.1888 C.3     1  UNL1        0.0490
     16 C          59.2283   89.0545    6.9201 C.2     1  UNL1        0.0774
     17 O          59.9556   89.9202    5.9345 O.co2   1  UNL1       -0.5444
     18 O          57.7345   88.9352    6.8543 O.co2   1  UNL1       -0.5444
     19 C          62.2485   90.5681   11.1435 C.3     1  UNL1        0.0211
     20 C          60.9724   91.3041   11.4266 C.3     1  UNL1        0.0019
     21 C          63.5093   91.3320   10.8665 C.3     1  UNL1        0.0019
     22 O          63.0908   82.3220   12.1646 O.3     1  UNL1       -0.4684
     23 C          62.1089   81.5587   13.0032 C.3     1  UNL1        0.2526
     24 O          64.5933   83.8288   14.2794 O.3     1  UNL1       -0.4723
     25 C          63.9558   83.5336   15.6046 C.3     1  UNL1        0.2082
     26 C          62.5531   83.9882   15.8800 C.3     1  UNL1        0.0794
     27 C          62.3120   85.2606   16.6370 C.3     1  UNL1        0.1461
     28 C          63.0335   87.7162   17.0839 C.3     1  UNL1        0.1741
     29 O          63.3837   86.3080   16.7039 O.3     1  UNL1       -0.3510
@<TRIPOS>UNITY_ATOM_ATTR
17 1
charge -1
@<TRIPOS>BOND
     1    28    29    1
     2    29    27    1
     3    27    26    1
     4    26    25    1
     5    25    24    1
     6    24     1    1
     7     1     2   ar
     8     2     3   ar
     9     3     4   ar
    10     4     5   ar
    11     5     6   ar
    12     6    22    1
    13    22    23    1
    14     4     7    1
    15     7     8   ar
    16     8     9   ar
    17     9    10    2
    18     9    11   ar
    19    11    16    1
    20    16    17   ar
    21    16    18   ar
    22    11    12   ar
    23    12    13   ar
    24    13    14    1
    25    14    19    1
    26    19    20    1
    27    19    21    1
    28    14    15    1
    29     6     1   ar
    30    13     7   ar
    31    15     3    1
@<TRIPOS>MOLECULE
*****
 29 31 0 0 0
SMALL
GASTEIGER

@<TRIPOS>ATOM
      1 C          56.7951   94.0314   -3.7395 C.ar    1  UNL1        0.1719
      2 C          58.2377   94.0601   -4.1495 C.ar    1  UNL1        0.0359
      3 C          59.3133   93.8629   -3.1228 C.ar    1  UNL1       -0.0157
      4 C          58.9463   93.6370   -1.6860 C.ar    1  UNL1        0.0152
      5 C          57.5037   93.6083   -1.2761 C.ar    1  UNL1        0.0412
      6 C          56.4281   93.8055   -2.3028 C.ar    1  UNL1        0.1724
      7 C          60.0219   93.4398   -0.6593 C.ar    1  UNL1        0.0628
      8 C          59.6549   93.2139    0.7774 C.ar    1  UNL1        0.0593
      9 C          60.7305   93.0166    1.8042 C.ar    1  UNL1        0.1996
     10 O          60.3634   92.7907    3.2410 O.2     1  UNL1       -0.2864
     11 C          62.1730   93.0453    1.3942 C.ar    1  UNL1        0.0701
     12 C          62.5400   93.2712   -0.0425 C.ar    1  UNL1        0.0801
     13 N          61.4644   93.4684   -1.0693 N.ar    1  UNL1       -0.3274
     14 C          61.8315   93.6943   -2.5061 C.3     1  UNL1        0.0898
     15 C          60.7559   93.8915   -3.5328 C.3     1  UNL1        0.0490
     16 C          63.2486   92.8481    2.4210 C.2     1  UNL1        0.0774
     17 O          64.3154   93.8875    2.5988 O.co2   1  UNL1       -0.5444
     18 O          63.2575   91.6115    3.2699 O.co2   1  UNL1       -0.5444
     19 C          63.2741   93.7230   -2.9161 C.3     1  UNL1        0.0211
     20 C          63.9000   92.5122   -3.5424 C.3     1  UNL1        0.0019
     21 C          64.0908   94.9624   -2.6998 C.3     1  UNL1        0.0019
     22 O          54.9855   93.7769   -1.8928 O.3     1  UNL1       -0.4684
     23 C          54.2305   95.0608   -1.7156 C.3     1  UNL1        0.2526
     24 O          55.7195   94.2286   -4.7663 O.3     1  UNL1       -0.4723
     25 C          55.6862   93.3659   -5.9928 C.3     1  UNL1        0.2082
     26 C          56.0400   91.9114   -5.8965 C.3     1  UNL1        0.0794
     27 C          55.0384   90.8679   -6.2943 C.3     1  UNL1        0.1461
     28 C          53.4042   88.9619   -5.6263 C.3     1  UNL1        0.1741
     29 O          54.5285   89.8912   -5.2766 O.3     1  UNL1       -0.3510
@<TRIPOS>UNITY_ATOM_ATTR
17 1
charge -1
@<TRIPOS>BOND
     1    28    29    1
     2    29    27    1
     3    27    26    1
     4    26    25    1
     5    25    24    1
     6    24     1    1
     7     1     2   ar
     8     2     3   ar
     9     3     4   ar
    10     4     5   ar
    11     5     6   ar
    12     6    22    1
    13    22    23    1
    14     4     7    1
    15     7     8   ar
    16     8     9   ar
    17     9    10    2
    18     9    11   ar
    19    11    16    1
    20    16    17   ar
    21    16    18   ar
    22    11    12   ar
    23    12    13   ar
    24    13    14    1
    25    14    19    1
    26    19    20    1
    27    19    21    1
    28    14    15    1
    29     6     1   ar
    30    13     7   ar
    31    15     3    1
@<TRIPOS>MOLECULE
*****
 29 31 0 0 0
SMALL
GASTEIGER

@<TRIPOS>ATOM
      1 C          63.9406   84.5602   13.0212 C.ar    1  UNL1        0.1719
      2 C          63.8202   86.0515   13.1273 C.ar    1  UNL1        0.0359
      3 C          63.0344   86.8153   12.1030 C.ar    1  UNL1       -0.0157
      4 C          62.3691   86.0877   10.9726 C.ar    1  UNL1        0.0152
      5 C          62.4895   84.5963   10.8665 C.ar    1  UNL1        0.0412
      6 C          63.2753   83.8326   11.8908 C.ar    1  UNL1        0.1724
      7 C          61.5833   86.8514    9.9483 C.ar    1  UNL1        0.0628
      8 C          60.9179   86.1238    8.8179 C.ar    1  UNL1        0.0593
      9 C          60.1321   86.8876    7.7936 C.ar    1  UNL1        0.1996
     10 O          59.4667   86.1599    6.6632 O.2     1  UNL1       -0.2864
     11 C          60.0117   88.3789    7.8997 C.ar    1  UNL1        0.0701
     12 C          60.6770   89.1065    9.0301 C.ar    1  UNL1        0.0801
     13 N          61.4628   88.3428   10.0544 N.ar    1  UNL1       -0.3274
     14 C          62.1282   89.0705   11.1848 C.3     1  UNL1        0.0898
     15 C          62.9140   88.3067   12.2091 C.3     1  UNL1        0.0490
     16 C          59.2259   89.1427    6.8754 C.2     1  UNL1        0.0774
     17 O          59.9343   90.0300    5.8953 O.co2   1  UNL1       -0.5444
     18 O          57.7316   89.0190    6.8312 O.co2   1  UNL1       -0.5444
     19 C          62.0078   90.5618   11.2909 C.3     1  UNL1        0.0211
     20 C          63.2253   91.4251   11.1412 C.3     1  UNL1        0.0019
     21 C          60.6698   91.1899   11.5466 C.3     1  UNL1        0.0019
     22 O          63.3957   82.3411   11.7847 O.3     1  UNL1       -0.4684
     23 C          63.6318   81.7009   10.4489 C.3     1  UNL1        0.2526
     24 O          64.7264   83.7964   14.0455 O.3     1  UNL1       -0.4723
     25 C          64.0794   83.3879   15.3356 C.3     1  UNL1        0.2082
     26 C          62.5888   83.2384   15.4127 C.3     1  UNL1        0.0794
     27 C          61.9050   82.1398   14.6541 C.3     1  UNL1        0.1461
     28 C          62.0622   79.8314   13.4724 C.3     1  UNL1        0.1741
     29 O          62.5852   80.8146   14.4772 O.3     1  UNL1       -0.3510
@<TRIPOS>UNITY_ATOM_ATTR
17 1
charge -1
@<TRIPOS>BOND
     1    28    29    1
     2    29    27    1
     3    27    26    1
     4    26    25    1
     5    25    24    1
     6    24     1    1
     7     1     2   ar
     8     2     3   ar
     9     3     4   ar
    10     4     5   ar
    11     5     6   ar
    12     6    22    1
    13    22    23    1
    14     4     7    1
    15     7     8   ar
    16     8     9   ar
    17     9    10    2
    18     9    11   ar
    19    11    16    1
    20    16    17   ar
    21    16    18   ar
    22    11    12   ar
    23    12    13   ar
    24    13    14    1
    25    14    19    1
    26    19    20    1
    27    19    21    1
    28    14    15    1
    29     6     1   ar
    30    13     7   ar
    31    15     3    1
@<TRIPOS>MOLECULE
*****
 29 31 0 0 0
SMALL
GASTEIGER

@<TRIPOS>ATOM
      1 C          63.8223   82.1618   13.0084 C.ar    1  UNL1        0.1719
      2 C          63.3600   82.3662   11.5962 C.ar    1  UNL1        0.0359
      3 C          63.0030   83.7414   11.1154 C.ar    1  UNL1       -0.0157
      4 C          63.1082   84.9124   12.0469 C.ar    1  UNL1        0.0152
      5 C          63.5704   84.7081   13.4592 C.ar    1  UNL1        0.0412
      6 C          63.9275   83.3328   13.9399 C.ar    1  UNL1        0.1724
      7 C          62.7511   86.2877   11.5662 C.ar    1  UNL1        0.0628
      8 C          62.8563   87.4586   12.4977 C.ar    1  UNL1        0.0593
      9 C          62.4993   88.8339   12.0169 C.ar    1  UNL1        0.1996
     10 O          62.6045   90.0049   12.9485 O.2     1  UNL1       -0.2864
     11 C          62.0370   89.0382   10.6046 C.ar    1  UNL1        0.0701
     12 C          61.9319   87.8673    9.6731 C.ar    1  UNL1        0.0801
     13 N          62.2889   86.4920   10.1539 N.ar    1  UNL1       -0.3274
     14 C          62.1837   85.3210    9.2223 C.3     1  UNL1        0.0898
     15 C          62.5407   83.9457    9.7031 C.3     1  UNL1        0.0490
     16 C          61.6800   90.4135   10.1239 C.2     1  UNL1        0.0774
     17 O          60.2414   90.8311   10.0467 O.co2   1  UNL1       -0.5444
     18 O          62.7616   91.3712    9.7203 O.co2   1  UNL1       -0.5444
     19 C          61.7214   85.5253    7.8100 C.3     1  UNL1        0.0211
     20 C          60.4295   86.2379    7.5394 C.3     1  UNL1        0.0019
     21 C          62.5511   85.0171    6.6684 C.3     1  UNL1        0.0019
     22 O          64.3897   83.1285   15.3523 O.3     1  UNL1       -0.4684
     23 C          64.0542   84.1426   16.4053 C.3     1  UNL1        0.2526
     24 O          64.1793   80.7866   13.4892 O.3     1  UNL1       -0.4723
     25 C          63.0990   79.8365   13.9139 C.3     1  UNL1        0.2082
     26 C          61.6889   80.0478   13.4483 C.3     1  UNL1        0.0794
     27 C          60.7588   80.9160   14.2428 C.3     1  UNL1        0.1461
     28 C          58.7786   79.2801   14.6335 C.3     1  UNL1        0.1741
     29 O          59.2852   80.6359   14.2398 O.3     1  UNL1       -0.3510
@<TRIPOS>UNITY_ATOM_ATTR
17 1
charge -1
@<TRIPOS>BOND
     1    28    29    1
     2    29    27    1
     3    27    26    1
     4    26    25    1
     5    25    24    1
     6    24     1    1
     7     1     2   ar
     8     2     3   ar
     9     3     4   ar
    10     4     5   ar
    11     5     6   ar
    12     6    22    1
    13    22    23    1
    14     4     7    1
    15     7     8   ar
    16     8     9   ar
    17     9    10    2
    18     9    11   ar
    19    11    16    1
    20    16    17   ar
    21    16    18   ar
    22    11    12   ar
    23    12    13   ar
    24    13    14    1
    25    14    19    1
    26    19    20    1
    27    19    21    1
    28    14    15    1
    29     6     1   ar
    30    13     7   ar
    31    15     3    1
@<TRIPOS>MOLECULE
*****
 29 31 0 0 0
SMALL
GASTEIGER

@<TRIPOS>ATOM
      1 C          61.6271   87.9383    9.5703 C.ar    1  UNL1        0.1719
      2 C          62.2787   88.0516   10.9165 C.ar    1  UNL1        0.0359
      3 C          62.6461   86.8130   11.6786 C.ar    1  UNL1       -0.0157
      4 C          62.3619   85.4610   11.0944 C.ar    1  UNL1        0.0152
      5 C          61.7102   85.3477    9.7481 C.ar    1  UNL1        0.0412
      6 C          61.3428   86.5863    8.9861 C.ar    1  UNL1        0.1724
      7 C          62.7293   84.2223   11.8565 C.ar    1  UNL1        0.0628
      8 C          62.4450   82.8704   11.2723 C.ar    1  UNL1        0.0593
      9 C          62.8124   81.6317   12.0344 C.ar    1  UNL1        0.1996
     10 O          62.5281   80.2797   11.4501 O.2     1  UNL1       -0.2864
     11 C          63.4641   81.7450   13.3806 C.ar    1  UNL1        0.0701
     12 C          63.7483   83.0970   13.9648 C.ar    1  UNL1        0.0801
     13 N          63.3809   84.3357   13.2027 N.ar    1  UNL1       -0.3274
     14 C          63.6652   85.6877   13.7870 C.3     1  UNL1        0.0898
     15 C          63.2978   86.9263   13.0249 C.3     1  UNL1        0.0490
     16 C          63.8314   80.5064   14.1427 C.2     1  UNL1        0.0774
     17 O          65.2470   80.2938   14.5911 O.co2   1  UNL1       -0.5444
     18 O          62.7833   79.4803   14.4564 O.co2   1  UNL1       -0.5444
     19 C          64.3169   85.8010   15.1333 C.3     1  UNL1        0.0211
     20 C          63.4733   85.8601   16.3723 C.3     1  UNL1        0.0019
     21 C          65.8120   85.8553   15.2406 C.3     1  UNL1        0.0019
     22 O          60.6912   86.4730    7.6397 O.3     1  UNL1       -0.4684
     23 C          60.8001   85.1969    6.8588 C.3     1  UNL1        0.2526
     24 O          61.2597   89.1770    8.8082 O.3     1  UNL1       -0.4723
     25 C          59.8253   89.4470    8.4624 C.3     1  UNL1        0.2082
     26 C          59.3091   89.1177    7.0931 C.3     1  UNL1        0.0794
     27 C          59.5290   90.0741    5.9586 C.3     1  UNL1        0.1461
     28 C          58.6516   91.9660    4.4092 C.3     1  UNL1        0.1741
     29 O          58.4474   91.0378    5.5697 O.3     1  UNL1       -0.3510
@<TRIPOS>UNITY_ATOM_ATTR
17 1
charge -1
@<TRIPOS>BOND
     1    28    29    1
     2    29    27    1
     3    27    26    1
     4    26    25    1
     5    25    24    1
     6    24     1    1
     7     1     2   ar
     8     2     3   ar
     9     3     4   ar
    10     4     5   ar
    11     5     6   ar
    12     6    22    1
    13    22    23    1
    14     4     7    1
    15     7     8   ar
    16     8     9   ar
    17     9    10    2
    18     9    11   ar
    19    11    16    1
    20    16    17   ar
    21    16    18   ar
    22    11    12   ar
    23    12    13   ar
    24    13    14    1
    25    14    19    1
    26    19    20    1
    27    19    21    1
    28    14    15    1
    29     6     1   ar
    30    13     7   ar
    31    15     3    1
@<TRIPOS>MOLECULE
*****
 29 31 0 0 0
SMALL
GASTEIGER

@<TRIPOS>ATOM
      1 C          61.8174   88.4614   10.0366 C.ar    1  UNL1        0.1719
      2 C          62.5017   88.4114   11.3705 C.ar    1  UNL1        0.0359
      3 C          62.8119   87.0882   12.0051 C.ar    1  UNL1       -0.0157
      4 C          62.4378   85.8149   11.3060 C.ar    1  UNL1        0.0152
      5 C          61.7535   85.8650    9.9721 C.ar    1  UNL1        0.0412
      6 C          61.4433   87.1882    9.3375 C.ar    1  UNL1        0.1724
      7 C          62.7480   84.4917   11.9406 C.ar    1  UNL1        0.0628
      8 C          62.3739   83.2185   11.2415 C.ar    1  UNL1        0.0593
      9 C          62.6841   81.8952   11.8761 C.ar    1  UNL1        0.1996
     10 O          62.3100   80.6219   11.1769 O.2     1  UNL1       -0.2864
     11 C          63.3684   81.8452   13.2100 C.ar    1  UNL1        0.0701
     12 C          63.7425   83.1184   13.9091 C.ar    1  UNL1        0.0801
     13 N          63.4323   84.4417   13.2745 N.ar    1  UNL1       -0.3274
     14 C          63.8065   85.7149   13.9737 C.3     1  UNL1        0.0898
     15 C          63.4963   87.0382   13.3391 C.3     1  UNL1        0.0490
     16 C          63.6786   80.5220   13.8446 C.2     1  UNL1        0.0774
     17 O          62.7017   79.3893   13.7331 O.co2   1  UNL1       -0.5444
     18 O          64.9658   80.3314   14.5908 O.co2   1  UNL1       -0.5444
     19 C          64.4908   85.6649   15.3076 C.3     1  UNL1        0.0211
     20 C          65.9883   85.6177   15.3810 C.3     1  UNL1        0.0019
     21 C          63.6777   85.6621   16.5680 C.3     1  UNL1        0.0019
     22 O          60.7590   87.2382    8.0035 O.3     1  UNL1       -0.4684
     23 C          59.2617   87.1927    7.9266 C.3     1  UNL1        0.2526
     24 O          61.5072   89.7847    9.4020 O.3     1  UNL1       -0.4723
     25 C          61.9464   91.0561   10.0657 C.3     1  UNL1        0.2082
     26 C          63.3863   91.4727   10.0099 C.3     1  UNL1        0.0794
     27 C          64.1681   91.6409   11.2791 C.3     1  UNL1        0.1461
     28 C          66.1425   92.8019   12.5053 C.3     1  UNL1        0.1741
     29 O          65.0782   92.8211   11.4485 O.3     1  UNL1       -0.3510
@<TRIPOS>UNITY_ATOM_ATTR
17 1
charge -1
@<TRIPOS>BOND
     1    28    29    1
     2    29    27    1
     3    27    26    1
     4    26    25    1
     5    25    24    1
     6    24     1    1
     7     1     2   ar
     8     2     3   ar
     9     3     4   ar
    10     4     5   ar
    11     5     6   ar
    12     6    22    1
    13    22    23    1
    14     4     7    1
    15     7     8   ar
    16     8     9   ar
    17     9    10    2
    18     9    11   ar
    19    11    16    1
    20    16    17   ar
    21    16    18   ar
    22    11    12   ar
    23    12    13   ar
    24    13    14    1
    25    14    19    1
    26    19    20    1
    27    19    21    1
    28    14    15    1
    29     6     1   ar
    30    13     7   ar
    31    15     3    1
