@<TRIPOS>MOLECULE
*****
 12 13 0 0 0
SMALL
GASTEIGER

@<TRIPOS>ATOM
      1 N          69.0626   92.0171   13.7500 N.pl3   1  UNL1       -0.2475
      2 C          67.5710   91.9599   13.6028 C.2     1  UNL1        0.3340
      3 N          66.7277   91.4156   14.7175 N.2     1  UNL1        0.0111
      4 C          65.2361   91.3583   14.5703 C.2     1  UNL1        0.4718
      5 N          64.5876   91.8454   13.3084 N.2     1  UNL1        0.0177
      6 C          65.4309   92.3896   12.1937 C.2     1  UNL1        0.3919
      7 N          65.0770   92.9382   10.8433 N.2     1  UNL1       -0.0102
      8 C          66.3499   93.3346   10.1558 C.2     1  UNL1        0.3354
      9 N          67.4905   93.0309   11.0814 N.2     1  UNL1       -0.2031
     10 C          66.9226   92.4469   12.3409 C.3     1  UNL1        0.3226
     11 H          69.4882   91.6975   14.5783 H       1  UNL1        0.2882
     12 H          69.6161   92.3744   13.0184 H       1  UNL1        0.2882
@<TRIPOS>BOND
     1     1     2    1
     2     2     3    2
     3     3     4    1
     4     4     5    2
     5     5     6    1
     6     6     7    2
     7     7     8    1
     8     8     9    2
     9     9    10    1
    10    10     2    1
    11    10     6    1
    12     1    11    1
    13     1    12    1
@<TRIPOS>MOLECULE
*****
 12 13 0 0 0
SMALL
GASTEIGER

@<TRIPOS>ATOM
      1 N          61.6100   81.1280   14.5252 N.pl3   1  UNL1       -0.2475
      2 C          62.6715   82.1424   14.2181 C.2     1  UNL1        0.3340
      3 N          63.1679   83.0586   15.2970 N.2     1  UNL1        0.0111
      4 C          64.2294   84.0729   14.9900 C.2     1  UNL1        0.4718
      5 N          64.7944   84.1712   13.6039 N.2     1  UNL1        0.0177
      6 C          64.2980   83.2550   12.5250 C.2     1  UNL1        0.3919
      7 N          64.6636   83.1194   11.0766 N.2     1  UNL1       -0.0102
      8 C          63.8281   82.0211   10.4885 C.2     1  UNL1        0.3354
      9 N          62.9461   81.4780   11.5734 N.2     1  UNL1       -0.2031
     10 C          63.2365   82.2406   12.8321 C.3     1  UNL1        0.3226
     11 H          61.2392   81.0635   15.4349 H       1  UNL1        0.2882
     12 H          61.2842   80.5267   13.8170 H       1  UNL1        0.2882
@<TRIPOS>BOND
     1     1     2    1
     2     2     3    2
     3     3     4    1
     4     4     5    2
     5     5     6    1
     6     6     7    2
     7     7     8    1
     8     8     9    2
     9     9    10    1
    10    10     2    1
    11    10     6    1
    12     1    11    1
    13     1    12    1
@<TRIPOS>MOLECULE
*****
 12 13 0 0 0
SMALL
GASTEIGER

@<TRIPOS>ATOM
      1 N          62.3755   85.0788   11.4743 N.pl3   1  UNL1       -0.2475
      2 C          62.8696   84.4702   12.7532 C.2     1  UNL1        0.3340
      3 N          63.3444   85.3527   13.8694 N.2     1  UNL1        0.0111
      4 C          63.8385   84.7441   15.1482 C.2     1  UNL1        0.4718
      5 N          63.8578   83.2531   15.3109 N.2     1  UNL1        0.0177
      6 C          63.3831   82.3706   14.1947 C.2     1  UNL1        0.3919
      7 N          63.2857   80.8793   14.0664 N.2     1  UNL1       -0.0102
      8 C          62.7314   80.5662   12.7082 C.2     1  UNL1        0.3354
      9 N          62.4862   81.8640   11.9971 N.2     1  UNL1       -0.2031
     10 C          62.8890   82.9792   12.9159 C.3     1  UNL1        0.3226
     11 H          62.3629   86.0574   11.3676 H       1  UNL1        0.2882
     12 H          62.0639   84.4997   10.7417 H       1  UNL1        0.2882
@<TRIPOS>BOND
     1     1     2    1
     2     2     3    2
     3     3     4    1
     4     4     5    2
     5     5     6    1
     6     6     7    2
     7     7     8    1
     8     8     9    2
     9     9    10    1
    10    10     2    1
    11    10     6    1
    12     1    11    1
    13     1    12    1
@<TRIPOS>MOLECULE
*****
 12 13 0 0 0
SMALL
GASTEIGER

@<TRIPOS>ATOM
      1 N          61.6692   85.9892   11.6301 N.pl3   1  UNL1       -0.2475
      2 C          62.5755   84.8064   11.8019 C.2     1  UNL1        0.3340
      3 N          63.2601   84.2066   10.6096 N.2     1  UNL1        0.0111
      4 C          64.1663   83.0238   10.7814 C.2     1  UNL1        0.4718
      5 N          64.3881   82.4407   12.1456 N.2     1  UNL1        0.0177
      6 C          63.7036   83.0406   13.3379 C.2     1  UNL1        0.3919
      7 N          63.7296   82.6842   14.7947 N.2     1  UNL1       -0.0102
      8 C          62.8393   83.6469   15.5233 C.2     1  UNL1        0.3354
      9 N          62.2631   84.5981   14.5167 N.2     1  UNL1       -0.2031
     10 C          62.7973   84.2234   13.1661 C.3     1  UNL1        0.3226
     11 H          61.5236   86.3719   10.7347 H       1  UNL1        0.2882
     12 H          61.2199   86.3829   12.4126 H       1  UNL1        0.2882
@<TRIPOS>BOND
     1     1     2    1
     2     2     3    2
     3     3     4    1
     4     4     5    2
     5     5     6    1
     6     6     7    2
     7     7     8    1
     8     8     9    2
     9     9    10    1
    10    10     2    1
    11    10     6    1
    12     1    11    1
    13     1    12    1
@<TRIPOS>MOLECULE
*****
 12 13 0 0 0
SMALL
GASTEIGER

@<TRIPOS>ATOM
      1 N          63.2691   91.0682   13.0072 N.pl3   1  UNL1       -0.2475
      2 C          64.5279   91.7603   12.5753 C.2     1  UNL1        0.3340
      3 N          64.7971   91.9862   11.1171 N.2     1  UNL1        0.0111
      4 C          66.0558   92.6783   10.6853 C.2     1  UNL1        0.4718
      5 N          67.0454   93.1446   11.7116 N.2     1  UNL1        0.0177
      6 C          66.7761   92.9187   13.1699 C.2     1  UNL1        0.3919
      7 N          67.5606   93.2646   14.4007 N.2     1  UNL1       -0.0102
      8 C          66.7867   92.7862   15.5932 C.2     1  UNL1        0.3354
      9 N          65.5239   92.1447   15.0995 N.2     1  UNL1       -0.2031
     10 C          65.5174   92.2266   13.6017 C.3     1  UNL1        0.3226
     11 H          62.6197   90.7622   12.3335 H       1  UNL1        0.2882
     12 H          63.0924   90.9199   13.9643 H       1  UNL1        0.2882
@<TRIPOS>BOND
     1     1     2    1
     2     2     3    2
     3     3     4    1
     4     4     5    2
     5     5     6    1
     6     6     7    2
     7     7     8    1
     8     8     9    2
     9     9    10    1
    10    10     2    1
    11    10     6    1
    12     1    11    1
    13     1    12    1
@<TRIPOS>MOLECULE
*****
 12 13 0 0 0
SMALL
GASTEIGER

@<TRIPOS>ATOM
      1 N          68.8549   91.9810   13.7420 N.pl3   1  UNL1       -0.2475
      2 C          67.5871   92.1092   12.9506 C.2     1  UNL1        0.3340
      3 N          67.6333   92.6035   11.5352 N.2     1  UNL1        0.0111
      4 C          66.3656   92.7317   10.7438 C.2     1  UNL1        0.4718
      5 N          65.0516   92.3656   11.3678 N.2     1  UNL1        0.0177
      6 C          65.0054   91.8713   12.7832 C.2     1  UNL1        0.3919
      7 N          63.8667   91.4385   13.6585 N.2     1  UNL1       -0.0102
      8 C          64.4308   91.0428   14.9909 C.2     1  UNL1        0.3354
      9 N          65.9180   91.2310   14.9391 N.2     1  UNL1       -0.2031
     10 C          66.2731   91.7431   13.5747 C.3     1  UNL1        0.3226
     11 H          69.7173   92.2213   13.3324 H       1  UNL1        0.2882
     12 H          68.8246   91.6566   14.6710 H       1  UNL1        0.2882
@<TRIPOS>BOND
     1     1     2    1
     2     2     3    2
     3     3     4    1
     4     4     5    2
     5     5     6    1
     6     6     7    2
     7     7     8    1
     8     8     9    2
     9     9    10    1
    10    10     2    1
    11    10     6    1
    12     1    11    1
    13     1    12    1
@<TRIPOS>MOLECULE
*****
 12 13 0 0 0
SMALL
GASTEIGER

@<TRIPOS>ATOM
      1 N          64.8107   82.9921   11.3383 N.pl3   1  UNL1       -0.2475
      2 C          63.8731   82.5305   12.4143 C.2     1  UNL1        0.3340
      3 N          63.1787   81.2070   12.2870 N.2     1  UNL1        0.0111
      4 C          62.2411   80.7454   13.3629 C.2     1  UNL1        0.4718
      5 N          61.9979   81.6072   14.5663 N.2     1  UNL1        0.0177
      6 C          62.6922   82.9307   14.6936 C.2     1  UNL1        0.3919
      7 N          62.6502   83.9880   15.7568 N.2     1  UNL1       -0.0102
      8 C          63.5618   85.1031   15.3379 C.2     1  UNL1        0.3354
      9 N          64.1673   84.7349   14.0158 N.2     1  UNL1       -0.2031
     10 C          63.6298   83.3923   13.6176 C.3     1  UNL1        0.3226
     11 H          64.9703   82.4264   10.5485 H       1  UNL1        0.2882
     12 H          65.2664   83.8608   11.4218 H       1  UNL1        0.2882
@<TRIPOS>BOND
     1     1     2    1
     2     2     3    2
     3     3     4    1
     4     4     5    2
     5     5     6    1
     6     6     7    2
     7     7     8    1
     8     8     9    2
     9     9    10    1
    10    10     2    1
    11    10     6    1
    12     1    11    1
    13     1    12    1
@<TRIPOS>MOLECULE
*****
 12 13 0 0 0
SMALL
GASTEIGER

@<TRIPOS>ATOM
      1 N          68.4745   92.3579    8.8620 N.pl3   1  UNL1       -0.2475
      2 C          67.7127   93.1810    9.8581 C.2     1  UNL1        0.3340
      3 N          67.2581   92.5657   11.1483 N.2     1  UNL1        0.0111
      4 C          66.4963   93.3888   12.1443 C.2     1  UNL1        0.4718
      5 N          66.1890   94.8272   11.8502 N.2     1  UNL1        0.0177
      6 C          66.6436   95.4425   10.5599 C.2     1  UNL1        0.3919
      7 N          66.4891   96.8246    9.9978 N.2     1  UNL1       -0.0102
      8 C          67.1554   96.8556    8.6543 C.2     1  UNL1        0.3354
      9 N          67.7218   95.4928    8.3861 N.2     1  UNL1       -0.2031
     10 C          67.4054   94.6194    9.5639 C.3     1  UNL1        0.3226
     11 H          68.6761   91.4138    9.0551 H       1  UNL1        0.2882
     12 H          68.7728   92.7617    8.0152 H       1  UNL1        0.2882
@<TRIPOS>BOND
     1     1     2    1
     2     2     3    2
     3     3     4    1
     4     4     5    2
     5     5     6    1
     6     6     7    2
     7     7     8    1
     8     8     9    2
     9     9    10    1
    10    10     2    1
    11    10     6    1
    12     1    11    1
    13     1    12    1
@<TRIPOS>MOLECULE
*****
 12 13 0 0 0
SMALL
GASTEIGER

@<TRIPOS>ATOM
      1 N          62.4445   84.5341   14.4724 N.pl3   1  UNL1       -0.2475
      2 C          62.5487   83.1825   13.8300 C.2     1  UNL1        0.3340
      3 N          62.1455   81.9561   14.5937 N.2     1  UNL1        0.0111
      4 C          62.2497   80.6047   13.9514 C.2     1  UNL1        0.4718
      5 N          62.7571   80.4795   12.5454 N.2     1  UNL1        0.0177
      6 C          63.1603   81.7060   11.7817 C.2     1  UNL1        0.3919
      7 N          63.6926   81.8931   10.3918 N.2     1  UNL1       -0.0102
      8 C          63.9173   83.3602   10.1752 C.2     1  UNL1        0.3354
      9 N          63.5240   84.0799   11.4311 N.2     1  UNL1       -0.2031
     10 C          63.0562   83.0575   12.4240 C.3     1  UNL1        0.3226
     11 H          62.1115   84.6161   15.3952 H       1  UNL1        0.2882
     12 H          62.7092   85.3390   13.9711 H       1  UNL1        0.2882
@<TRIPOS>BOND
     1     1     2    1
     2     2     3    2
     3     3     4    1
     4     4     5    2
     5     5     6    1
     6     6     7    2
     7     7     8    1
     8     8     9    2
     9     9    10    1
    10    10     2    1
    11    10     6    1
    12     1    11    1
    13     1    12    1
