@<TRIPOS>MOLECULE
*****
 39 44 0 0 0
SMALL
GASTEIGER

@<TRIPOS>ATOM
      1 C          64.0915   89.0840   14.1110 C.ar    1  UNL1        0.0570
      2 C          64.1253   88.7974   15.5830 C.ar    1  UNL1        0.1237
      3 N          63.5601   87.4252   15.8011 N.ar    1  UNL1       -0.1598
      4 N          63.1770   86.8637   14.4640 N.ar    1  UNL1       -0.1820
      5 C          62.5716   85.5513   14.0626 C.ar    1  UNL1        0.2232
      6 N          62.2946   85.2641   12.6166 N.ar    1  UNL1       -0.1609
      7 C          62.6230   86.2893   11.5720 C.ar    1  UNL1        0.3283
      8 N          63.2284   87.6017   11.9735 N.ar    1  UNL1       -0.1746
      9 C          63.5055   87.8889   13.4194 C.ar    1  UNL1        0.1727
     10 C          67.2484   93.2099   14.0108 C.3     1  UNL1        0.0312
     11 C          66.1398   92.4074   13.3970 C.ar    1  UNL1       -0.0175
     12 C          65.6699   91.1470   14.0609 C.ar    1  UNL1       -0.0040
     13 C          64.5613   90.3444   13.4472 C.ar    1  UNL1        0.0042
     14 C          63.9224   90.8022   12.1696 C.ar    1  UNL1        0.0003
     15 C          64.3922   92.0626   11.5058 C.ar    1  UNL1        0.0042
     16 C          65.5009   92.8652   12.1195 C.ar    1  UNL1        0.0494
     17 C          65.9706   94.1256   11.4556 C.2     1  UNL1        0.2455
     18 O          66.0716   95.3966   12.2457 O.2     1  UNL1       -0.2702
     19 N          66.3394   94.1149   10.0017 N.am    1  UNL1       -0.3025
     20 H          66.2732   93.2807    9.4831 H       1  UNL1        0.1497
     21 C          66.8092   95.3753    9.3378 C.3     1  UNL1        0.0720
     22 C          67.1774   96.8271    9.4194 C.3     1  UNL1        0.0213
     23 C          67.2547   96.1066    8.1062 C.3     1  UNL1        0.0213
     24 N          62.2432   84.5261   15.1072 N.pl3   1  UNL1       -0.3028
     25 H          61.4945   84.6783   15.7280 H       1  UNL1        0.1496
     26 C          63.0556   83.2689   15.2057 C.3     1  UNL1        0.0897
     27 C          62.9545   82.2246   14.1337 C.3     1  UNL1        0.0246
     28 C          63.7587   82.3615   12.8750 C.3     1  UNL1        0.0338
     29 C          63.6576   81.3172   11.8030 C.3     1  UNL1        0.1422
     30 O          62.7521   80.1361   11.9897 O.3     1  UNL1       -0.3538
     31 C          61.9478   79.9991   13.2484 C.3     1  UNL1        0.1422
     32 C          62.0489   81.0434   14.3204 C.3     1  UNL1        0.0338
     33 O          62.3460   86.0022   10.1261 O.3     1  UNL1       -0.4222
     34 C          61.3579   86.8407    9.3708 C.ar    1  UNL1        0.1487
     35 C          61.3334   88.3279    9.5645 C.ar    1  UNL1        0.0376
     36 C          60.3453   89.1665    8.8092 C.ar    1  UNL1        0.0031
     37 C          59.3816   88.5178    7.8603 C.ar    1  UNL1        0.0002
     38 C          59.4061   87.0306    7.6666 C.ar    1  UNL1        0.0031
     39 C          60.3942   86.1921    8.4219 C.ar    1  UNL1        0.0376
@<TRIPOS>BOND
     1    10    11    1
     2    11    12   ar
     3    12    13   ar
     4    13     1    1
     5     1     2   ar
     6     2     3   ar
     7     3     4   ar
     8     4     5   ar
     9     5    24    1
    10    24    26    1
    11    26    27    1
    12    27    28    1
    13    28    29    1
    14    29    30    1
    15    30    31    1
    16    31    32    1
    17     5     6   ar
    18     6     7   ar
    19     7    33    1
    20    33    34    1
    21    34    35   ar
    22    35    36   ar
    23    36    37   ar
    24    37    38   ar
    25    38    39   ar
    26     7     8   ar
    27     8     9   ar
    28    13    14   ar
    29    14    15   ar
    30    15    16   ar
    31    16    17    1
    32    17    18    2
    33    17    19   am
    34    19    21    1
    35    21    22    1
    36    22    23    1
    37    16    11   ar
    38    23    21    1
    39     9     1   ar
    40     9     4   ar
    41    32    27    1
    42    39    34   ar
    43    24    25    1
    44    19    20    1
@<TRIPOS>MOLECULE
*****
 39 44 0 0 0
SMALL
GASTEIGER

@<TRIPOS>ATOM
      1 C          62.3079   85.8860   10.9765 C.ar    1  UNL1        0.0570
      2 C          62.5309   84.4048   10.8973 C.ar    1  UNL1        0.1237
      3 N          63.3701   83.9990   12.0725 N.ar    1  UNL1       -0.1598
      4 N          63.6657   85.2293   12.8780 N.ar    1  UNL1       -0.1820
      5 C          64.4479   85.4383   14.1407 C.ar    1  UNL1        0.2232
      6 N          64.5736   86.8137   14.7261 N.ar    1  UNL1       -0.1609
      7 C          63.9171   87.9800   14.0488 C.ar    1  UNL1        0.3283
      8 N          63.1349   87.7709   12.7860 N.ar    1  UNL1       -0.1746
      9 C          63.0092   86.3956   12.2006 C.ar    1  UNL1        0.1727
     10 C          59.9778   90.3579    9.7224 C.3     1  UNL1        0.0312
     11 C          60.3565   88.9486    9.3755 C.ar    1  UNL1       -0.0175
     12 C          61.1428   88.1220   10.3494 C.ar    1  UNL1       -0.0040
     13 C          61.5216   86.7126   10.0026 C.ar    1  UNL1        0.0042
     14 C          61.1140   86.1298    8.6819 C.ar    1  UNL1        0.0003
     15 C          60.3277   86.9565    7.7080 C.ar    1  UNL1        0.0042
     16 C          59.9489   88.3659    8.0548 C.ar    1  UNL1        0.0494
     17 C          59.1626   89.1924    7.0809 C.2     1  UNL1        0.2455
     18 O          57.6982   88.9319    6.8871 O.2     1  UNL1       -0.2702
     19 N          59.8407   90.2795    6.3009 N.am    1  UNL1       -0.3025
     20 H          60.8019   90.4505    6.4281 H       1  UNL1        0.1497
     21 C          59.0544   91.1061    5.3270 C.3     1  UNL1        0.0720
     22 C          57.7365   91.6098    4.8178 C.3     1  UNL1        0.0213
     23 C          59.0104   92.0340    4.1493 C.3     1  UNL1        0.0213
     24 N          65.1043   84.2720   14.8180 N.pl3   1  UNL1       -0.3028
     25 H          66.0848   84.1834   14.8054 H       1  UNL1        0.1496
     26 C          64.2670   83.2406   15.5146 C.3     1  UNL1        0.0897
     27 C          63.4391   82.2805   14.7129 C.3     1  UNL1        0.0246
     28 C          61.9463   82.2736   14.8592 C.3     1  UNL1        0.0338
     29 C          61.1185   81.3135   14.0574 C.3     1  UNL1        0.1422
     30 O          61.7835   80.3602   13.1094 O.3     1  UNL1       -0.3538
     31 C          63.2764   80.3669   12.9630 C.3     1  UNL1        0.1422
     32 C          64.1042   81.3271   13.7647 C.3     1  UNL1        0.0338
     33 O          64.0428   89.3553   14.6342 O.3     1  UNL1       -0.4222
     34 C          64.6787   90.4548   13.8363 C.ar    1  UNL1        0.1487
     35 C          65.9538   91.0855   14.3119 C.ar    1  UNL1        0.0376
     36 C          66.5898   92.1850   13.5140 C.ar    1  UNL1        0.0031
     37 C          65.9506   92.6538   12.2405 C.ar    1  UNL1        0.0002
     38 C          64.6755   92.0230   11.7649 C.ar    1  UNL1        0.0031
     39 C          64.0396   90.9235   12.5628 C.ar    1  UNL1        0.0376
@<TRIPOS>BOND
     1    10    11    1
     2    11    12   ar
     3    12    13   ar
     4    13     1    1
     5     1     2   ar
     6     2     3   ar
     7     3     4   ar
     8     4     5   ar
     9     5    24    1
    10    24    26    1
    11    26    27    1
    12    27    28    1
    13    28    29    1
    14    29    30    1
    15    30    31    1
    16    31    32    1
    17     5     6   ar
    18     6     7   ar
    19     7    33    1
    20    33    34    1
    21    34    35   ar
    22    35    36   ar
    23    36    37   ar
    24    37    38   ar
    25    38    39   ar
    26     7     8   ar
    27     8     9   ar
    28    13    14   ar
    29    14    15   ar
    30    15    16   ar
    31    16    17    1
    32    17    18    2
    33    17    19   am
    34    19    21    1
    35    21    22    1
    36    22    23    1
    37    16    11   ar
    38    23    21    1
    39     9     1   ar
    40     9     4   ar
    41    32    27    1
    42    39    34   ar
    43    24    25    1
    44    19    20    1
@<TRIPOS>MOLECULE
*****
 39 44 0 0 0
SMALL
GASTEIGER

@<TRIPOS>ATOM
      1 C          61.6676   89.9530   10.6269 C.ar    1  UNL1        0.0570
      2 C          60.4621   90.7253   10.1794 C.ar    1  UNL1        0.1237
      3 N          59.7339   89.8989    9.1612 N.ar    1  UNL1       -0.1598
      4 N          60.4893   88.6158    8.9795 N.ar    1  UNL1       -0.1820
      5 C          60.2434   87.4213    8.1062 C.ar    1  UNL1        0.2232
      6 N          61.1925   86.2602    8.1387 N.ar    1  UNL1       -0.1609
      7 C          62.3877   86.2936    9.0446 C.ar    1  UNL1        0.3283
      8 N          62.6336   87.4882    9.9179 N.ar    1  UNL1       -0.1746
      9 C          61.6845   88.6492    9.8854 C.ar    1  UNL1        0.1727
     10 C          63.6848   89.6754   15.4075 C.3     1  UNL1        0.0312
     11 C          63.6874   90.2662   14.0288 C.ar    1  UNL1       -0.0175
     12 C          62.6763   89.8142   13.0172 C.ar    1  UNL1       -0.0040
     13 C          62.6788   90.4050   11.6385 C.ar    1  UNL1        0.0042
     14 C          63.6925   91.4479   11.2713 C.ar    1  UNL1        0.0003
     15 C          64.7037   91.8998   12.2829 C.ar    1  UNL1        0.0042
     16 C          64.7012   91.3090   13.6616 C.ar    1  UNL1        0.0494
     17 C          65.7123   91.7611   14.6731 C.2     1  UNL1        0.2455
     18 O          65.2614   92.2496   16.0177 O.2     1  UNL1       -0.2702
     19 N          67.1744   91.7246   14.3400 N.am    1  UNL1       -0.3025
     20 H          67.4704   91.4040   13.4575 H       1  UNL1        0.1497
     21 C          68.1856   92.1766   15.3516 C.3     1  UNL1        0.0720
     22 C          69.1383   93.2175   15.8605 C.3     1  UNL1        0.0213
     23 C          68.9843   91.9187   16.5947 C.3     1  UNL1        0.0213
     24 N          59.0483   87.3879    7.2003 N.pl3   1  UNL1       -0.3028
     25 H          58.8256   86.5641    6.7093 H       1  UNL1        0.1496
     26 C          58.1923   88.6096    7.0426 C.3     1  UNL1        0.0897
     27 C          58.6339   89.7232    6.1399 C.3     1  UNL1        0.0246
     28 C          60.0863   89.8824    5.8004 C.3     1  UNL1        0.0338
     29 C          60.5279   90.9960    4.8978 C.3     1  UNL1        0.1422
     30 O          59.5171   91.9505    4.3346 O.3     1  UNL1       -0.3538
     31 C          58.0647   91.7914    4.6740 C.3     1  UNL1        0.1422
     32 C          57.6231   90.6778    5.5767 C.3     1  UNL1        0.0338
     33 O          63.3368   85.1326    9.0772 O.3     1  UNL1       -0.4222
     34 C          63.3940   84.2443   10.2845 C.ar    1  UNL1        0.1487
     35 C          62.6225   84.6059   11.5189 C.ar    1  UNL1        0.0376
     36 C          62.6798   83.7176   12.7263 C.ar    1  UNL1        0.0031
     37 C          63.5085   82.4676   12.6991 C.ar    1  UNL1        0.0002
     38 C          64.2800   82.1060   11.4646 C.ar    1  UNL1        0.0031
     39 C          64.2227   82.9943   10.2573 C.ar    1  UNL1        0.0376
@<TRIPOS>BOND
     1    10    11    1
     2    11    12   ar
     3    12    13   ar
     4    13     1    1
     5     1     2   ar
     6     2     3   ar
     7     3     4   ar
     8     4     5   ar
     9     5    24    1
    10    24    26    1
    11    26    27    1
    12    27    28    1
    13    28    29    1
    14    29    30    1
    15    30    31    1
    16    31    32    1
    17     5     6   ar
    18     6     7   ar
    19     7    33    1
    20    33    34    1
    21    34    35   ar
    22    35    36   ar
    23    36    37   ar
    24    37    38   ar
    25    38    39   ar
    26     7     8   ar
    27     8     9   ar
    28    13    14   ar
    29    14    15   ar
    30    15    16   ar
    31    16    17    1
    32    17    18    2
    33    17    19   am
    34    19    21    1
    35    21    22    1
    36    22    23    1
    37    16    11   ar
    38    23    21    1
    39     9     1   ar
    40     9     4   ar
    41    32    27    1
    42    39    34   ar
    43    24    25    1
    44    19    20    1
@<TRIPOS>MOLECULE
*****
 39 44 0 0 0
SMALL
GASTEIGER

@<TRIPOS>ATOM
      1 C          63.7004   86.7234   13.9961 C.ar    1  UNL1        0.0570
      2 C          64.2467   87.1419   15.3289 C.ar    1  UNL1        0.1237
      3 N          64.2409   88.6410   15.3822 N.ar    1  UNL1       -0.1598
      4 N          63.6911   89.1489   14.0823 N.ar    1  UNL1       -0.1820
      5 C          63.4516   90.5375   13.5680 C.ar    1  UNL1        0.2232
      6 N          62.8779   90.7409   12.1970 N.ar    1  UNL1       -0.1609
      7 C          62.5438   89.5558   11.3404 C.ar    1  UNL1        0.3283
      8 N          62.7834   88.1672   11.8547 N.ar    1  UNL1       -0.1746
      9 C          63.3571   87.9638   13.2256 C.ar    1  UNL1        0.1727
     10 C          63.7897   83.2343   10.1467 C.3     1  UNL1        0.0312
     11 C          63.5724   83.5676   11.5929 C.ar    1  UNL1       -0.0175
     12 C          63.7450   84.9788   12.0714 C.ar    1  UNL1       -0.0040
     13 C          63.5278   85.3123   13.5176 C.ar    1  UNL1        0.0042
     14 C          63.1379   84.2346   14.4854 C.ar    1  UNL1        0.0003
     15 C          62.9652   82.8235   14.0069 C.ar    1  UNL1        0.0042
     16 C          63.1825   82.4900   12.5607 C.ar    1  UNL1        0.0494
     17 C          63.0099   81.0789   12.0823 C.2     1  UNL1        0.2455
     18 O          62.6131   80.0026   13.0488 O.2     1  UNL1       -0.2702
     19 N          63.2340   80.7441   10.6374 N.am    1  UNL1       -0.3025
     20 H          63.4945   81.4505   10.0031 H       1  UNL1        0.1497
     21 C          63.0614   79.3329   10.1590 C.3     1  UNL1        0.0720
     22 C          62.5042   77.9540   10.3542 C.3     1  UNL1        0.0213
     23 C          63.3196   78.2677    9.1350 C.3     1  UNL1        0.0213
     24 N          63.7856   91.7226   14.4247 N.pl3   1  UNL1       -0.3028
     25 H          63.3040   92.5720   14.2993 H       1  UNL1        0.1496
     26 C          64.8536   91.6135   15.4724 C.3     1  UNL1        0.0897
     27 C          66.2663   91.9978   15.1461 C.3     1  UNL1        0.0246
     28 C          66.8630   91.6105   13.8256 C.3     1  UNL1        0.0338
     29 C          68.2758   91.9948   13.4993 C.3     1  UNL1        0.1422
     30 O          69.0918   92.7664   14.4936 O.3     1  UNL1       -0.3538
     31 C          68.4952   93.1537   15.8143 C.3     1  UNL1        0.1422
     32 C          67.0824   92.7694   16.1405 C.3     1  UNL1        0.0338
     33 O          61.9701   89.7592    9.9694 O.3     1  UNL1       -0.4222
     34 C          61.2683   88.6300    9.2749 C.ar    1  UNL1        0.1487
     35 C          59.9773   88.8800    8.5532 C.ar    1  UNL1        0.0376
     36 C          59.2755   87.7508    7.8588 C.ar    1  UNL1        0.0031
     37 C          59.8646   86.3716    7.8860 C.ar    1  UNL1        0.0002
     38 C          61.1556   86.1217    8.6077 C.ar    1  UNL1        0.0031
     39 C          61.8574   87.2509    9.3022 C.ar    1  UNL1        0.0376
@<TRIPOS>BOND
     1    10    11    1
     2    11    12   ar
     3    12    13   ar
     4    13     1    1
     5     1     2   ar
     6     2     3   ar
     7     3     4   ar
     8     4     5   ar
     9     5    24    1
    10    24    26    1
    11    26    27    1
    12    27    28    1
    13    28    29    1
    14    29    30    1
    15    30    31    1
    16    31    32    1
    17     5     6   ar
    18     6     7   ar
    19     7    33    1
    20    33    34    1
    21    34    35   ar
    22    35    36   ar
    23    36    37   ar
    24    37    38   ar
    25    38    39   ar
    26     7     8   ar
    27     8     9   ar
    28    13    14   ar
    29    14    15   ar
    30    15    16   ar
    31    16    17    1
    32    17    18    2
    33    17    19   am
    34    19    21    1
    35    21    22    1
    36    22    23    1
    37    16    11   ar
    38    23    21    1
    39     9     1   ar
    40     9     4   ar
    41    32    27    1
    42    39    34   ar
    43    24    25    1
    44    19    20    1
@<TRIPOS>MOLECULE
*****
 39 44 0 0 0
SMALL
GASTEIGER

@<TRIPOS>ATOM
      1 C          61.6680   89.9568   10.6440 C.ar    1  UNL1        0.0570
      2 C          60.4602   90.7290   10.2027 C.ar    1  UNL1        0.1237
      3 N          59.7303   89.9052    9.1835 N.ar    1  UNL1       -0.1598
      4 N          60.4871   88.6240    8.9949 N.ar    1  UNL1       -0.1820
      5 C          60.2405   87.4324    8.1178 C.ar    1  UNL1        0.2232
      6 N          61.1915   86.2726    8.1434 N.ar    1  UNL1       -0.1609
      7 C          62.3891   86.3044    9.0461 C.ar    1  UNL1        0.3283
      8 N          62.6357   87.4961    9.9231 N.ar    1  UNL1       -0.1746
      9 C          61.6847   88.6558    9.8975 C.ar    1  UNL1        0.1727
     10 C          65.7288   92.9343   11.9264 C.3     1  UNL1        0.0312
     11 C          64.7118   91.8954   12.2956 C.ar    1  UNL1       -0.0175
     12 C          63.6984   91.4455   11.2853 C.ar    1  UNL1       -0.0040
     13 C          62.6814   90.4066   11.6543 C.ar    1  UNL1        0.0042
     14 C          62.6776   89.8175   13.0338 C.ar    1  UNL1        0.0003
     15 C          63.6910   90.2674   14.0441 C.ar    1  UNL1        0.0042
     16 C          64.7081   91.3063   13.6751 C.ar    1  UNL1        0.0494
     17 C          65.7214   91.7561   14.6854 C.2     1  UNL1        0.2455
     18 O          65.2740   92.2305   16.0362 O.2     1  UNL1       -0.2702
     19 N          67.1820   91.7315   14.3450 N.am    1  UNL1       -0.3025
     20 H          67.4756   91.4201   13.4583 H       1  UNL1        0.1497
     21 C          68.1954   92.1813   15.3553 C.3     1  UNL1        0.0720
     22 C          69.1160   93.2378   15.8903 C.3     1  UNL1        0.0213
     23 C          69.0299   91.9038   16.5705 C.3     1  UNL1        0.0213
     24 N          59.0429   87.4005    7.2152 N.pl3   1  UNL1       -0.3028
     25 H          58.8133   86.5746    6.7310 H       1  UNL1        0.1496
     26 C          58.1953   88.6270    7.0502 C.3     1  UNL1        0.0897
     27 C          58.6465   89.7343    6.1445 C.3     1  UNL1        0.0246
     28 C          60.1023   89.8904    5.8186 C.3     1  UNL1        0.0338
     29 C          60.5536   90.9977    4.9129 C.3     1  UNL1        0.1422
     30 O          59.5491   91.9489    4.3331 O.3     1  UNL1       -0.3538
     31 C          58.0932   91.7928    4.6591 C.3     1  UNL1        0.1422
     32 C          57.6419   90.6855    5.5647 C.3     1  UNL1        0.0338
     33 O          63.3400   85.1447    9.0717 O.3     1  UNL1       -0.4222
     34 C          63.4007   84.2510   10.2748 C.ar    1  UNL1        0.1487
     35 C          62.6092   84.5914   11.5026 C.ar    1  UNL1        0.0376
     36 C          62.6699   83.6976   12.7058 C.ar    1  UNL1        0.0031
     37 C          63.5220   82.4635   12.6811 C.ar    1  UNL1        0.0002
     38 C          64.3135   82.1231   11.4532 C.ar    1  UNL1        0.0031
     39 C          64.2528   83.0168   10.2501 C.ar    1  UNL1        0.0376
@<TRIPOS>BOND
     1    10    11    1
     2    11    12   ar
     3    12    13   ar
     4    13     1    1
     5     1     2   ar
     6     2     3   ar
     7     3     4   ar
     8     4     5   ar
     9     5    24    1
    10    24    26    1
    11    26    27    1
    12    27    28    1
    13    28    29    1
    14    29    30    1
    15    30    31    1
    16    31    32    1
    17     5     6   ar
    18     6     7   ar
    19     7    33    1
    20    33    34    1
    21    34    35   ar
    22    35    36   ar
    23    36    37   ar
    24    37    38   ar
    25    38    39   ar
    26     7     8   ar
    27     8     9   ar
    28    13    14   ar
    29    14    15   ar
    30    15    16   ar
    31    16    17    1
    32    17    18    2
    33    17    19   am
    34    19    21    1
    35    21    22    1
    36    22    23    1
    37    16    11   ar
    38    23    21    1
    39     9     1   ar
    40     9     4   ar
    41    32    27    1
    42    39    34   ar
    43    24    25    1
    44    19    20    1
@<TRIPOS>MOLECULE
*****
 39 44 0 0 0
SMALL
GASTEIGER

@<TRIPOS>ATOM
      1 C          62.8976   90.2033   11.5303 C.ar    1  UNL1        0.0570
      2 C          61.8996   90.9218   10.6713 C.ar    1  UNL1        0.1237
      3 N          60.8675   89.9273   10.2291 N.ar    1  UNL1       -0.1598
      4 N          61.2275   88.5941   10.8148 N.ar    1  UNL1       -0.1820
      5 C          60.5750   87.2468   10.7197 C.ar    1  UNL1        0.2232
      6 N          61.1771   86.0701   11.4289 N.ar    1  UNL1       -0.1609
      7 C          62.4318   86.2407   12.2331 C.ar    1  UNL1        0.3283
      8 N          63.0843   87.5880   12.3281 N.ar    1  UNL1       -0.1746
      9 C          62.4822   88.7647   11.6190 C.ar    1  UNL1        0.1727
     10 C          66.8329   93.5952   11.4402 C.3     1  UNL1        0.0312
     11 C          66.0676   92.5118   12.1405 C.ar    1  UNL1       -0.0175
     12 C          64.8653   91.8992   11.4853 C.ar    1  UNL1       -0.0040
     13 C          64.0998   90.8158   12.1855 C.ar    1  UNL1        0.0042
     14 C          64.5366   90.3450   13.5411 C.ar    1  UNL1        0.0003
     15 C          65.7390   90.9576   14.1963 C.ar    1  UNL1        0.0042
     16 C          66.5044   92.0410   13.4960 C.ar    1  UNL1        0.0494
     17 C          67.7067   92.6535   14.1513 C.2     1  UNL1        0.2455
     18 O          69.0845   92.2465   13.7203 O.2     1  UNL1       -0.2702
     19 N          67.5310   93.6729   15.2375 N.am    1  UNL1       -0.3025
     20 H          66.6266   93.9400   15.5203 H       1  UNL1        0.1497
     21 C          68.7333   94.2855   15.8928 C.3     1  UNL1        0.0720
     22 C          69.4291   95.4815   16.4719 C.3     1  UNL1        0.0213
     23 C          70.1199   94.1503   16.4486 C.3     1  UNL1        0.0213
     24 N          59.3203   87.0762    9.9156 N.pl3   1  UNL1       -0.3028
     25 H          58.4419   87.1252   10.3574 H       1  UNL1        0.1496
     26 C          59.4040   86.8310    8.4381 C.3     1  UNL1        0.0897
     27 C          60.5416   86.0328    7.8736 C.3     1  UNL1        0.0246
     28 C          61.9042   86.1269    8.4935 C.3     1  UNL1        0.0338
     29 C          63.0418   85.3287    7.9291 C.3     1  UNL1        0.1422
     30 O          62.8169   84.4363    6.7446 O.3     1  UNL1       -0.3538
     31 C          61.4542   84.3421    6.1246 C.3     1  UNL1        0.1422
     32 C          60.3166   85.1403    6.6890 C.3     1  UNL1        0.0338
     33 O          63.0339   85.0641   12.9422 O.3     1  UNL1       -0.4222
     34 C          63.1248   83.7368   12.2493 C.ar    1  UNL1        0.1487
     35 C          62.4892   82.5250   12.8636 C.ar    1  UNL1        0.0376
     36 C          62.5800   81.1977   12.1706 C.ar    1  UNL1        0.0031
     37 C          63.3065   81.0823   10.8634 C.ar    1  UNL1        0.0002
     38 C          63.9420   82.2942   10.2491 C.ar    1  UNL1        0.0031
     39 C          63.8512   83.6214   10.9420 C.ar    1  UNL1        0.0376
@<TRIPOS>BOND
     1    10    11    1
     2    11    12   ar
     3    12    13   ar
     4    13     1    1
     5     1     2   ar
     6     2     3   ar
     7     3     4   ar
     8     4     5   ar
     9     5    24    1
    10    24    26    1
    11    26    27    1
    12    27    28    1
    13    28    29    1
    14    29    30    1
    15    30    31    1
    16    31    32    1
    17     5     6   ar
    18     6     7   ar
    19     7    33    1
    20    33    34    1
    21    34    35   ar
    22    35    36   ar
    23    36    37   ar
    24    37    38   ar
    25    38    39   ar
    26     7     8   ar
    27     8     9   ar
    28    13    14   ar
    29    14    15   ar
    30    15    16   ar
    31    16    17    1
    32    17    18    2
    33    17    19   am
    34    19    21    1
    35    21    22    1
    36    22    23    1
    37    16    11   ar
    38    23    21    1
    39     9     1   ar
    40     9     4   ar
    41    32    27    1
    42    39    34   ar
    43    24    25    1
    44    19    20    1
@<TRIPOS>MOLECULE
*****
 39 44 0 0 0
SMALL
GASTEIGER

@<TRIPOS>ATOM
      1 C          63.8459   87.2418   13.5163 C.ar    1  UNL1        0.0570
      2 C          64.5777   87.7190   14.7356 C.ar    1  UNL1        0.1237
      3 N          64.6260   89.2176   14.6903 N.ar    1  UNL1       -0.1598
      4 N          63.9240   89.6665   13.4430 N.ar    1  UNL1       -0.1820
      5 C          63.6616   91.0293   12.8741 C.ar    1  UNL1        0.2232
      6 N          62.9170   91.1711   11.5797 N.ar    1  UNL1       -0.1609
      7 C          62.4349   89.9500   10.8541 C.ar    1  UNL1        0.3283
      8 N          62.6974   88.5871   11.4230 N.ar    1  UNL1       -0.1746
      9 C          63.4419   88.4453   12.7174 C.ar    1  UNL1        0.1727
     10 C          64.2637   82.1731   14.5811 C.3     1  UNL1        0.0312
     11 C          63.7760   83.2776   13.6911 C.ar    1  UNL1       -0.0175
     12 C          64.0548   84.7074   14.0487 C.ar    1  UNL1       -0.0040
     13 C          63.5671   85.8120   13.1587 C.ar    1  UNL1        0.0042
     14 C          62.8005   85.4867   11.9111 C.ar    1  UNL1        0.0003
     15 C          62.5217   84.0568   11.5535 C.ar    1  UNL1        0.0042
     16 C          63.0094   82.9523   12.4435 C.ar    1  UNL1        0.0494
     17 C          62.7306   81.5225   12.0858 C.2     1  UNL1        0.2455
     18 O          61.9757   80.6445   13.0393 O.2     1  UNL1       -0.2702
     19 N          63.2066   80.9708   10.7747 N.am    1  UNL1       -0.3025
     20 H          63.7020   81.5471   10.1489 H       1  UNL1        0.1497
     21 C          62.9277   79.5410   10.4171 C.3     1  UNL1        0.0720
     22 C          62.4967   78.1616   10.8190 C.3     1  UNL1        0.0213
     23 C          62.8758   78.4438    9.3955 C.3     1  UNL1        0.0213
     24 N          64.1437   92.2505   13.5997 N.pl3   1  UNL1       -0.3028
     25 H          63.5023   92.8242   14.0779 H       1  UNL1        0.1496
     26 C          65.6031   92.5974   13.5967 C.3     1  UNL1        0.0897
     27 C          66.2468   93.1214   12.3473 C.3     1  UNL1        0.0246
     28 C          66.1419   94.5776   12.0036 C.3     1  UNL1        0.0338
     29 C          66.7857   95.1016   10.7541 C.3     1  UNL1        0.1422
     30 O          67.5343   94.1693    9.8484 O.3     1  UNL1       -0.3538
     31 C          67.6392   92.7130   10.1921 C.3     1  UNL1        0.1422
     32 C          66.9955   92.1890   11.4415 C.3     1  UNL1        0.0338
     33 O          61.6904   90.0918    9.5597 O.3     1  UNL1       -0.4222
     34 C          60.9572   88.9168    8.9836 C.ar    1  UNL1        0.1487
     35 C          61.4002   87.5219    9.3120 C.ar    1  UNL1        0.0376
     36 C          60.6670   86.3469    8.7360 C.ar    1  UNL1        0.0031
     37 C          59.4908   86.5668    7.8315 C.ar    1  UNL1        0.0002
     38 C          59.0478   87.9618    7.5030 C.ar    1  UNL1        0.0031
     39 C          59.7810   89.1367    8.0791 C.ar    1  UNL1        0.0376
@<TRIPOS>BOND
     1    10    11    1
     2    11    12   ar
     3    12    13   ar
     4    13     1    1
     5     1     2   ar
     6     2     3   ar
     7     3     4   ar
     8     4     5   ar
     9     5    24    1
    10    24    26    1
    11    26    27    1
    12    27    28    1
    13    28    29    1
    14    29    30    1
    15    30    31    1
    16    31    32    1
    17     5     6   ar
    18     6     7   ar
    19     7    33    1
    20    33    34    1
    21    34    35   ar
    22    35    36   ar
    23    36    37   ar
    24    37    38   ar
    25    38    39   ar
    26     7     8   ar
    27     8     9   ar
    28    13    14   ar
    29    14    15   ar
    30    15    16   ar
    31    16    17    1
    32    17    18    2
    33    17    19   am
    34    19    21    1
    35    21    22    1
    36    22    23    1
    37    16    11   ar
    38    23    21    1
    39     9     1   ar
    40     9     4   ar
    41    32    27    1
    42    39    34   ar
    43    24    25    1
    44    19    20    1
@<TRIPOS>MOLECULE
*****
 39 44 0 0 0
SMALL
GASTEIGER

@<TRIPOS>ATOM
      1 C          63.9273   87.5103   14.0233 C.ar    1  UNL1        0.0570
      2 C          64.9390   88.1278   14.9426 C.ar    1  UNL1        0.1237
      3 N          65.1413   89.5525   14.5191 N.ar    1  UNL1       -0.1598
      4 N          64.2546   89.8156   13.3382 N.ar    1  UNL1       -0.1820
      5 C          64.0335   91.0413   12.5023 C.ar    1  UNL1        0.2232
      6 N          63.0621   91.0048   11.3600 N.ar    1  UNL1       -0.1609
      7 C          62.3117   89.7426   11.0535 C.ar    1  UNL1        0.3283
      8 N          62.5329   88.5169   11.8894 N.ar    1  UNL1       -0.1746
      9 C          63.5043   88.5534   13.0318 C.ar    1  UNL1        0.1727
     10 C          62.6987   83.0635   11.6325 C.3     1  UNL1        0.0312
     11 C          62.8121   83.8743   12.8894 C.ar    1  UNL1       -0.0175
     12 C          63.3130   85.2869   12.8280 C.ar    1  UNL1       -0.0040
     13 C          63.4264   86.0978   14.0848 C.ar    1  UNL1        0.0042
     14 C          63.0390   85.4961   15.4031 C.ar    1  UNL1        0.0003
     15 C          62.5382   84.0835   15.4644 C.ar    1  UNL1        0.0042
     16 C          62.4247   83.2726   14.2076 C.ar    1  UNL1        0.0494
     17 C          61.9239   81.8600   14.2691 C.2     1  UNL1        0.2455
     18 O          62.8953   80.7251   14.4046 O.2     1  UNL1       -0.2702
     19 N          60.4516   81.5823   14.1951 N.am    1  UNL1       -0.3025
     20 H          59.8141   82.3272   14.1061 H       1  UNL1        0.1497
     21 C          59.9508   80.1698   14.2565 C.3     1  UNL1        0.0720
     22 C          58.8620   79.1905   14.5812 C.3     1  UNL1        0.0213
     23 C          60.1722   78.7023   14.0383 C.3     1  UNL1        0.0213
     24 N          64.7839   92.3034   12.8088 N.pl3   1  UNL1       -0.3028
     25 H          64.3107   93.0764   13.1933 H       1  UNL1        0.1496
     26 C          66.2553   92.3879   12.5294 C.3     1  UNL1        0.0897
     27 C          66.7472   93.1148   11.3130 C.3     1  UNL1        0.0246
     28 C          66.3818   94.5540   11.1005 C.3     1  UNL1        0.0338
     29 C          66.8737   95.2809    9.8841 C.3     1  UNL1        0.1422
     30 O          67.7310   94.5687    8.8803 O.3     1  UNL1       -0.3538
     31 C          68.0965   93.1294    9.0928 C.3     1  UNL1        0.1422
     32 C          67.6045   92.4025   10.3092 C.3     1  UNL1        0.0338
     33 O          61.3403   89.7062    9.9112 O.3     1  UNL1       -0.4222
     34 C          61.0420   88.4080    9.2215 C.ar    1  UNL1        0.1487
     35 C          59.7595   88.2396    8.4620 C.ar    1  UNL1        0.0376
     36 C          59.4612   86.9414    7.7723 C.ar    1  UNL1        0.0031
     37 C          60.4454   85.8116    7.8420 C.ar    1  UNL1        0.0002
     38 C          61.7279   85.9800    8.6015 C.ar    1  UNL1        0.0031
     39 C          62.0262   87.2782    9.2912 C.ar    1  UNL1        0.0376
@<TRIPOS>BOND
     1    10    11    1
     2    11    12   ar
     3    12    13   ar
     4    13     1    1
     5     1     2   ar
     6     2     3   ar
     7     3     4   ar
     8     4     5   ar
     9     5    24    1
    10    24    26    1
    11    26    27    1
    12    27    28    1
    13    28    29    1
    14    29    30    1
    15    30    31    1
    16    31    32    1
    17     5     6   ar
    18     6     7   ar
    19     7    33    1
    20    33    34    1
    21    34    35   ar
    22    35    36   ar
    23    36    37   ar
    24    37    38   ar
    25    38    39   ar
    26     7     8   ar
    27     8     9   ar
    28    13    14   ar
    29    14    15   ar
    30    15    16   ar
    31    16    17    1
    32    17    18    2
    33    17    19   am
    34    19    21    1
    35    21    22    1
    36    22    23    1
    37    16    11   ar
    38    23    21    1
    39     9     1   ar
    40     9     4   ar
    41    32    27    1
    42    39    34   ar
    43    24    25    1
    44    19    20    1
@<TRIPOS>MOLECULE
*****
 39 44 0 0 0
SMALL
GASTEIGER

@<TRIPOS>ATOM
      1 C          59.0306   90.4897    5.7839 C.ar    1  UNL1        0.0570
      2 C          57.5968   90.8123    5.4838 C.ar    1  UNL1        0.1237
      3 N          57.5657   91.7147    4.2860 N.ar    1  UNL1       -0.1598
      4 N          58.9803   91.9498    3.8459 N.ar    1  UNL1       -0.1820
      5 C          59.5609   92.7555    2.7217 C.ar    1  UNL1        0.2232
      6 N          61.0470   92.8040    2.5233 N.ar    1  UNL1       -0.1609
      7 C          61.9524   92.0469    3.4491 C.ar    1  UNL1        0.3283
      8 N          61.3717   91.2412    4.5733 N.ar    1  UNL1       -0.1746
      9 C          59.8857   91.1927    4.7716 C.ar    1  UNL1        0.1727
     10 C          61.7521   89.9031   10.1713 C.3     1  UNL1        0.0312
     11 C          60.8838   89.3239    9.0941 C.ar    1  UNL1       -0.0175
     12 C          60.3914   90.1963    7.9776 C.ar    1  UNL1       -0.0040
     13 C          59.5230   89.6172    6.9003 C.ar    1  UNL1        0.0042
     14 C          59.1470   88.1656    6.9395 C.ar    1  UNL1        0.0003
     15 C          59.6395   87.2932    8.0559 C.ar    1  UNL1        0.0042
     16 C          60.5078   87.8723    9.1332 C.ar    1  UNL1        0.0494
     17 C          61.0002   86.9999   10.2496 C.2     1  UNL1        0.2455
     18 O          60.5231   87.2359   11.6520 O.2     1  UNL1       -0.2702
     19 N          61.9695   85.8915    9.9636 N.am    1  UNL1       -0.3025
     20 H          62.2826   85.7366    9.0432 H       1  UNL1        0.1497
     21 C          62.4619   85.0190   11.0801 C.3     1  UNL1        0.0720
     22 C          62.9127   84.8592   12.5017 C.3     1  UNL1        0.0213
     23 C          62.8639   83.6676   11.5920 C.3     1  UNL1        0.0213
     24 N          58.6556   93.5126    1.7959 N.pl3   1  UNL1       -0.3028
     25 H          57.8652   93.9788    2.1526 H       1  UNL1        0.1496
     26 C          58.9544   93.5594    0.3267 C.3     1  UNL1        0.0897
     27 C          57.8340   93.6831   -0.6630 C.3     1  UNL1        0.0246
     28 C          57.1673   92.4509   -1.1989 C.3     1  UNL1        0.0338
     29 C          56.0469   92.5746   -2.1885 C.3     1  UNL1        0.1422
     30 O          55.5933   93.9305   -2.6423 O.3     1  UNL1       -0.3538
     31 C          56.2601   95.1627   -2.1064 C.3     1  UNL1        0.1422
     32 C          57.3805   95.0390   -1.1167 C.3     1  UNL1        0.0338
     33 O          63.4384   92.0955    3.2507 O.3     1  UNL1       -0.4222
     34 C          64.0424   93.1402    2.3598 C.ar    1  UNL1        0.1487
     35 C          64.3795   92.8082    0.9364 C.ar    1  UNL1        0.0376
     36 C          64.9835   93.8529    0.0454 C.ar    1  UNL1        0.0031
     37 C          65.2504   95.2295    0.5779 C.ar    1  UNL1        0.0002
     38 C          64.9134   95.5615    2.0013 C.ar    1  UNL1        0.0031
     39 C          64.3093   94.5168    2.8922 C.ar    1  UNL1        0.0376
@<TRIPOS>BOND
     1    10    11    1
     2    11    12   ar
     3    12    13   ar
     4    13     1    1
     5     1     2   ar
     6     2     3   ar
     7     3     4   ar
     8     4     5   ar
     9     5    24    1
    10    24    26    1
    11    26    27    1
    12    27    28    1
    13    28    29    1
    14    29    30    1
    15    30    31    1
    16    31    32    1
    17     5     6   ar
    18     6     7   ar
    19     7    33    1
    20    33    34    1
    21    34    35   ar
    22    35    36   ar
    23    36    37   ar
    24    37    38   ar
    25    38    39   ar
    26     7     8   ar
    27     8     9   ar
    28    13    14   ar
    29    14    15   ar
    30    15    16   ar
    31    16    17    1
    32    17    18    2
    33    17    19   am
    34    19    21    1
    35    21    22    1
    36    22    23    1
    37    16    11   ar
    38    23    21    1
    39     9     1   ar
    40     9     4   ar
    41    32    27    1
    42    39    34   ar
    43    24    25    1
    44    19    20    1
