@<TRIPOS>MOLECULE
*****
 40 44 0 0 0
SMALL
GASTEIGER

@<TRIPOS>ATOM
      1 O          58.9649   90.3485    6.7248 O.3     1  UNL1       -0.4727
      2 C          60.8042   92.3260    3.1253 C.ar    1  UNL1        0.0481
      3 C          59.3756   92.6061    3.4868 C.ar    1  UNL1        0.0176
      4 C          58.7626   91.9469    4.6867 C.ar    1  UNL1        0.0382
      5 C          59.5780   91.0077    5.5250 C.ar    1  UNL1        0.1388
      6 C          61.0066   90.7276    5.1634 C.ar    1  UNL1        0.0382
      7 C          61.6196   91.3867    3.9635 C.ar    1  UNL1        0.0176
      8 N          62.6434   94.3035   -0.4743 N.3     1  UNL1       -0.1559
      9 C          61.1716   94.4346   -0.2167 C.3     1  UNL1        0.1168
     10 C          60.5585   93.7755    0.9832 C.3     1  UNL1        0.1099
     11 N          61.4173   92.9852    1.9254 N.pl3   1  UNL1       -0.3045
     12 C          62.8891   92.8540    1.6678 C.3     1  UNL1        0.1099
     13 C          63.5022   93.5132    0.4679 C.3     1  UNL1        0.1168
     14 S          63.2565   94.9626   -1.6742 S.O2    1  UNL1        0.0465
     15 O          64.6068   94.8879   -1.0253 O.2     1  UNL1       -0.1572
     16 O          61.9062   95.0374   -2.3230 O.2     1  UNL1       -0.1572
     17 C          63.8696   95.6218   -2.8740 C.3     1  UNL1        0.2010
     18 C          64.6420   94.8040   -3.8662 C.3     1  UNL1        0.1693
     19 C          65.1060   92.4808   -4.9327 C.3     1  UNL1        0.1742
     20 O          64.1800   93.4216   -4.2204 O.3     1  UNL1       -0.3492
     21 C          58.6654   88.8789    6.7020 C.3     1  UNL1        0.2374
     22 C          59.4795   87.9346    7.5360 C.3     1  UNL1        0.1909
     23 C          59.2274   86.4656    7.7045 C.3     1  UNL1        0.1783
     24 O          60.2807   85.9165    8.6205 O.3     1  UNL1       -0.3267
     25 C          61.1839   87.0462    9.0181 C.3     1  UNL1        0.2296
     26 O          60.6888   88.2935    8.3479 O.3     1  UNL1       -0.3255
     27 C          61.8990   85.9890    9.8059 C.ar    1  UNL1        0.0409
     28 C          61.6596   85.8623   11.2813 C.ar    1  UNL1        0.0022
     29 C          62.3748   84.8051   12.0692 C.ar    1  UNL1        0.0113
     30 C          63.3294   83.8745   11.3817 C.ar    1  UNL1        0.0585
     31 CL         64.0446   82.8172   12.1695 Cl      1  UNL1       -0.0822
     32 C          63.5688   84.0011    9.9063 C.ar    1  UNL1        0.0226
     33 C          62.8537   85.0583    9.1185 C.ar    1  UNL1        0.0591
     34 CL         63.0931   85.1850    7.6431 Cl      1  UNL1       -0.0824
     35 C          62.2366   87.9550    9.5804 C.3     1  UNL1        0.1682
     36 N          61.9669   88.7277   10.8375 N.ar    1  UNL1       -0.3025
     37 C          62.9962   89.1931   11.8242 C.ar    1  UNL1        0.0982
     38 C          62.2860   89.9237   12.9250 C.ar    1  UNL1        0.1193
     39 N          60.8178   89.9098   12.6186 N.ar    1  UNL1       -0.2223
     40 C          60.6205   89.1706   11.3284 C.ar    1  UNL1        0.1788
@<TRIPOS>BOND
     1    19    20    1
     2    20    18    1
     3    18    17    1
     4    17    14    1
     5    14    15    2
     6    14    16    2
     7    14     8    1
     8     8     9    1
     9     9    10    1
    10    10    11    1
    11    11     2    1
    12     2     3   ar
    13     3     4   ar
    14     4     5   ar
    15     5     1    1
    16     1    21    1
    17    22    21    1
    18    22    23    1
    19    23    24    1
    20    24    25    1
    21    25    35    1
    22    35    36    1
    23    36    37   ar
    24    37    38   ar
    25    38    39   ar
    26    39    40   ar
    27    25    27    1
    28    27    28   ar
    29    28    29   ar
    30    29    30   ar
    31    30    31    1
    32    30    32   ar
    33    32    33   ar
    34    33    34    1
    35    25    26    1
    36     5     6   ar
    37     6     7   ar
    38    11    12    1
    39    12    13    1
    40    13     8    1
    41     7     2   ar
    42    26    22    1
    43    40    36   ar
    44    33    27   ar
@<TRIPOS>MOLECULE
*****
 40 44 0 0 0
SMALL
GASTEIGER

@<TRIPOS>ATOM
      1 O          64.3300   91.3700   15.9770 O.3     1  UNL1       -0.4727
      2 C          63.6418   87.0025   15.1393 C.ar    1  UNL1        0.0481
      3 C          64.4010   87.8441   14.1568 C.ar    1  UNL1        0.0176
      4 C          64.6304   89.2999   14.4361 C.ar    1  UNL1        0.0382
      5 C          64.1006   89.9141   15.6978 C.ar    1  UNL1        0.1388
      6 C          63.3415   89.0725   16.6803 C.ar    1  UNL1        0.0382
      7 C          63.1121   87.6167   16.4011 C.ar    1  UNL1        0.0176
      8 N          62.9537   82.6350   14.3016 N.3     1  UNL1       -0.1559
      9 C          62.1660   83.3260   15.3749 C.3     1  UNL1        0.1168
     10 C          62.3954   84.7819   15.6542 C.3     1  UNL1        0.1099
     11 N          63.4125   85.5467   14.8601 N.pl3   1  UNL1       -0.3045
     12 C          64.2001   84.8557   13.7867 C.3     1  UNL1        0.1099
     13 C          63.9707   83.3999   13.5075 C.3     1  UNL1        0.1168
     14 S          62.7243   81.1792   14.0224 S.O2    1  UNL1        0.0465
     15 O          64.1940   80.9191   14.1710 O.2     1  UNL1       -0.1572
     16 O          61.2545   81.4393   13.8737 O.2     1  UNL1       -0.1572
     17 C          62.4949   79.7234   13.7431 C.3     1  UNL1        0.2010
     18 C          62.3962   79.2377   12.3274 C.3     1  UNL1        0.1693
     19 C          62.8597   79.5832    9.7944 C.3     1  UNL1        0.1742
     20 O          62.8937   80.0973   11.2032 O.3     1  UNL1       -0.3492
     21 C          65.6762   91.9798   15.7206 C.3     1  UNL1        0.2374
     22 C          65.9335   92.7187   14.4409 C.3     1  UNL1        0.1909
     23 C          66.5110   94.0977   14.3197 C.3     1  UNL1        0.1783
     24 O          66.5928   94.4396   12.8615 O.3     1  UNL1       -0.3267
     25 C          66.0658   93.2719   12.0814 C.3     1  UNL1        0.2296
     26 O          65.6583   92.2082   13.0574 O.3     1  UNL1       -0.3255
     27 C          66.3767   94.1288   10.8902 C.ar    1  UNL1        0.0409
     28 C          65.6619   95.4335   10.6978 C.ar    1  UNL1        0.0022
     29 C          65.9728   96.2905    9.5066 C.ar    1  UNL1        0.0113
     30 C          66.9984   95.8427    8.5078 C.ar    1  UNL1        0.0585
     31 CL         67.3093   96.6997    7.3166 Cl      1  UNL1       -0.0822
     32 C          67.7131   94.5380    8.7002 C.ar    1  UNL1        0.0226
     33 C          67.4023   93.6811    9.8913 C.ar    1  UNL1        0.0591
     34 CL         68.1170   92.3765   10.0837 Cl      1  UNL1       -0.0824
     35 C          65.6037   92.2832   11.0522 C.3     1  UNL1        0.1682
     36 N          64.2334   91.6814   11.1523 N.ar    1  UNL1       -0.3025
     37 C          63.2908   91.4402   10.0108 C.ar    1  UNL1        0.0982
     38 C          62.0400   90.8248   10.5645 C.ar    1  UNL1        0.1193
     39 N          62.2096   90.6856   12.0484 N.ar    1  UNL1       -0.2223
     40 C          63.5652   91.2150   12.4117 C.ar    1  UNL1        0.1788
@<TRIPOS>BOND
     1    19    20    1
     2    20    18    1
     3    18    17    1
     4    17    14    1
     5    14    15    2
     6    14    16    2
     7    14     8    1
     8     8     9    1
     9     9    10    1
    10    10    11    1
    11    11     2    1
    12     2     3   ar
    13     3     4   ar
    14     4     5   ar
    15     5     1    1
    16     1    21    1
    17    22    21    1
    18    22    23    1
    19    23    24    1
    20    24    25    1
    21    25    35    1
    22    35    36    1
    23    36    37   ar
    24    37    38   ar
    25    38    39   ar
    26    39    40   ar
    27    25    27    1
    28    27    28   ar
    29    28    29   ar
    30    29    30   ar
    31    30    31    1
    32    30    32   ar
    33    32    33   ar
    34    33    34    1
    35    25    26    1
    36     5     6   ar
    37     6     7   ar
    38    11    12    1
    39    12    13    1
    40    13     8    1
    41     7     2   ar
    42    26    22    1
    43    40    36   ar
    44    33    27   ar
@<TRIPOS>MOLECULE
*****
 40 44 0 0 0
SMALL
GASTEIGER

@<TRIPOS>ATOM
      1 O          63.1352   86.8943   17.1771 O.3     1  UNL1       -0.4727
      2 C          64.5095   90.3122   14.5926 C.ar    1  UNL1        0.0481
      3 C          64.8245   88.8997   14.1981 C.ar    1  UNL1        0.0176
      4 C          64.3664   87.7605   15.0596 C.ar    1  UNL1        0.0382
      5 C          63.5933   88.0336   16.3156 C.ar    1  UNL1        0.1388
      6 C          63.2783   89.4461   16.7102 C.ar    1  UNL1        0.0382
      7 C          63.7364   90.5854   15.8486 C.ar    1  UNL1        0.0176
      8 N          65.8837   93.7301   12.0081 N.3     1  UNL1       -0.1559
      9 C          66.3645   93.6205   13.4247 C.3     1  UNL1        0.1168
     10 C          65.9064   92.4812   14.2862 C.3     1  UNL1        0.1099
     11 N          64.9675   91.4515   13.7311 N.pl3   1  UNL1       -0.3045
     12 C          64.4867   91.5611   12.3145 C.3     1  UNL1        0.1099
     13 C          64.9448   92.7004   11.4530 C.3     1  UNL1        0.1168
     14 S          66.3418   94.8693   11.1466 S.O2    1  UNL1        0.0465
     15 O          66.1355   95.8174   12.2906 O.2     1  UNL1       -0.1572
     16 O          66.5481   93.9213   10.0026 O.2     1  UNL1       -0.1572
     17 C          66.7999   96.0086   10.2851 C.3     1  UNL1        0.2010
     18 C          67.1499   95.7676    8.8466 C.3     1  UNL1        0.1693
     19 C          65.7506   96.8303    6.9327 C.3     1  UNL1        0.1742
     20 O          66.9498   96.8556    7.8336 O.3     1  UNL1       -0.3492
     21 C          61.9982   86.0249   16.7286 C.3     1  UNL1        0.2374
     22 C          62.2097   85.0166   15.6384 C.3     1  UNL1        0.1909
     23 C          61.9235   83.5470   15.7290 C.3     1  UNL1        0.1783
     24 O          62.2815   82.9229   14.4128 O.3     1  UNL1       -0.3267
     25 C          62.7891   84.0069   13.5087 C.3     1  UNL1        0.2296
     26 O          62.7447   85.3009   14.2662 O.3     1  UNL1       -0.3255
     27 C          62.9464   82.8908   12.5191 C.ar    1  UNL1        0.0409
     28 C          63.8011   83.0832   11.3014 C.ar    1  UNL1        0.0022
     29 C          63.9584   81.9670   10.3117 C.ar    1  UNL1        0.0113
     30 C          63.2612   80.6587   10.5396 C.ar    1  UNL1        0.0585
     31 CL         63.4186   79.5425    9.5499 Cl      1  UNL1       -0.0822
     32 C          62.4066   80.4663   11.7573 C.ar    1  UNL1        0.0226
     33 C          62.2493   81.5824   12.7470 C.ar    1  UNL1        0.0591
     34 CL         61.3947   81.3901   13.9647 Cl      1  UNL1       -0.0824
     35 C          63.3296   84.8577   12.3978 C.3     1  UNL1        0.1682
     36 N          62.4879   85.9541   11.8151 N.ar    1  UNL1       -0.3025
     37 C          61.2513   85.7705   10.9863 C.ar    1  UNL1        0.0982
     38 C          60.7342   87.1296   10.6180 C.ar    1  UNL1        0.1193
     39 N          61.6513   88.1530   11.2193 N.ar    1  UNL1       -0.2223
     40 C          62.7351   87.4265   11.9591 C.ar    1  UNL1        0.1788
@<TRIPOS>BOND
     1    19    20    1
     2    20    18    1
     3    18    17    1
     4    17    14    1
     5    14    15    2
     6    14    16    2
     7    14     8    1
     8     8     9    1
     9     9    10    1
    10    10    11    1
    11    11     2    1
    12     2     3   ar
    13     3     4   ar
    14     4     5   ar
    15     5     1    1
    16     1    21    1
    17    22    21    1
    18    22    23    1
    19    23    24    1
    20    24    25    1
    21    25    35    1
    22    35    36    1
    23    36    37   ar
    24    37    38   ar
    25    38    39   ar
    26    39    40   ar
    27    25    27    1
    28    27    28   ar
    29    28    29   ar
    30    29    30   ar
    31    30    31    1
    32    30    32   ar
    33    32    33   ar
    34    33    34    1
    35    25    26    1
    36     5     6   ar
    37     6     7   ar
    38    11    12    1
    39    12    13    1
    40    13     8    1
    41     7     2   ar
    42    26    22    1
    43    40    36   ar
    44    33    27   ar
@<TRIPOS>MOLECULE
*****
 40 44 0 0 0
SMALL
GASTEIGER

@<TRIPOS>ATOM
      1 O          64.3648   89.1648   14.6693 O.3     1  UNL1       -0.4727
      2 C          63.6474   85.0211   13.0676 C.ar    1  UNL1        0.0481
      3 C          64.3822   85.2082   14.3618 C.ar    1  UNL1        0.0176
      4 C          64.6213   86.5894   14.8957 C.ar    1  UNL1        0.0382
      5 C          64.1257   87.7836   14.1354 C.ar    1  UNL1        0.1388
      6 C          63.3908   87.5966   12.8412 C.ar    1  UNL1        0.0382
      7 C          63.1517   86.2153   12.3073 C.ar    1  UNL1        0.0176
      8 N          62.9300   80.8775   11.4660 N.3     1  UNL1       -0.1559
      9 C          62.4997   81.2278   12.8595 C.3     1  UNL1        0.1168
     10 C          62.7389   82.6090   13.3934 C.3     1  UNL1        0.1099
     11 N          63.4083   83.6399   12.5337 N.pl3   1  UNL1       -0.3045
     12 C          63.8385   83.2896   11.1402 C.3     1  UNL1        0.1099
     13 C          63.5994   81.9084   10.6063 C.3     1  UNL1        0.1168
     14 S          62.6909   79.4962   10.9321 S.O2    1  UNL1        0.0465
     15 O          62.9053   79.9991    9.5352 O.2     1  UNL1       -0.1572
     16 O          62.4765   78.9934   12.3289 O.2     1  UNL1       -0.1572
     17 C          62.4517   78.1150   10.3982 C.3     1  UNL1        0.2010
     18 C          63.5888   77.1418   10.2995 C.3     1  UNL1        0.1693
     19 C          65.2707   75.9183    8.7424 C.3     1  UNL1        0.1742
     20 O          64.4716   77.1402    9.0868 O.3     1  UNL1       -0.3492
     21 C          63.5738   90.3223   14.1361 C.3     1  UNL1        0.2374
     22 C          64.1908   91.2557   13.1371 C.3     1  UNL1        0.1909
     23 C          63.9061   91.2849   11.6646 C.3     1  UNL1        0.1783
     24 O          64.7402   92.3710   11.0526 O.3     1  UNL1       -0.3267
     25 C          65.5405   93.0131   12.1468 C.3     1  UNL1        0.2296
     26 O          65.2010   92.3239   13.4351 O.3     1  UNL1       -0.3255
     27 C          66.0704   93.8742   11.0389 C.ar    1  UNL1        0.0409
     28 C          65.4995   95.2431   10.8143 C.ar    1  UNL1        0.0022
     29 C          66.0295   96.1042    9.7063 C.ar    1  UNL1        0.0113
     30 C          67.1304   95.5966    8.8230 C.ar    1  UNL1        0.0585
     31 CL         67.6604   96.4577    7.7150 Cl      1  UNL1       -0.0822
     32 C          67.7013   94.2277    9.0476 C.ar    1  UNL1        0.0226
     33 C          67.1713   93.3666   10.1555 C.ar    1  UNL1        0.0591
     34 CL         67.7422   91.9978   10.3801 Cl      1  UNL1       -0.0824
     35 C          66.4516   93.8353   13.0094 C.3     1  UNL1        0.1682
     36 N          67.2591   93.1768   14.0884 N.ar    1  UNL1       -0.3025
     37 C          67.3085   93.5902   15.5294 C.ar    1  UNL1        0.0982
     38 C          68.2390   92.6582   16.2474 C.ar    1  UNL1        0.1193
     39 N          68.7645   91.6686   15.2501 N.ar    1  UNL1       -0.2223
     40 C          68.1589   91.9892   13.9158 C.ar    1  UNL1        0.1788
@<TRIPOS>BOND
     1    19    20    1
     2    20    18    1
     3    18    17    1
     4    17    14    1
     5    14    15    2
     6    14    16    2
     7    14     8    1
     8     8     9    1
     9     9    10    1
    10    10    11    1
    11    11     2    1
    12     2     3   ar
    13     3     4   ar
    14     4     5   ar
    15     5     1    1
    16     1    21    1
    17    22    21    1
    18    22    23    1
    19    23    24    1
    20    24    25    1
    21    25    35    1
    22    35    36    1
    23    36    37   ar
    24    37    38   ar
    25    38    39   ar
    26    39    40   ar
    27    25    27    1
    28    27    28   ar
    29    28    29   ar
    30    29    30   ar
    31    30    31    1
    32    30    32   ar
    33    32    33   ar
    34    33    34    1
    35    25    26    1
    36     5     6   ar
    37     6     7   ar
    38    11    12    1
    39    12    13    1
    40    13     8    1
    41     7     2   ar
    42    26    22    1
    43    40    36   ar
    44    33    27   ar
@<TRIPOS>MOLECULE
*****
 40 44 0 0 0
SMALL
GASTEIGER

@<TRIPOS>ATOM
      1 O          58.7932   89.4893    6.7828 O.3     1  UNL1       -0.4727
      2 C          60.3789   92.2518    3.6041 C.ar    1  UNL1        0.0481
      3 C          61.3118   91.3250    4.3258 C.ar    1  UNL1        0.0176
      4 C          60.7832   90.4041    5.3853 C.ar    1  UNL1        0.0382
      5 C          59.3218   90.4101    5.7232 C.ar    1  UNL1        0.1388
      6 C          58.3890   91.3369    5.0016 C.ar    1  UNL1        0.0382
      7 C          58.9175   92.2577    3.9420 C.ar    1  UNL1        0.0176
      8 N          61.9647   95.0142    0.4254 N.3     1  UNL1       -0.1559
      9 C          62.8656   93.9865    1.0434 C.3     1  UNL1        0.1168
     10 C          62.3370   93.0656    2.1030 C.3     1  UNL1        0.1099
     11 N          60.9075   93.1726    2.5445 N.pl3   1  UNL1       -0.3045
     12 C          60.0066   94.2003    1.9265 C.3     1  UNL1        0.1099
     13 C          60.5352   95.1211    0.8669 C.3     1  UNL1        0.1168
     14 S          62.4932   95.9350   -0.6342 S.O2    1  UNL1        0.0465
     15 O          61.2327   95.7481   -1.4255 O.2     1  UNL1       -0.1572
     16 O          63.7538   96.1220    0.1571 O.2     1  UNL1       -0.1572
     17 C          63.0218   96.8559   -1.6938 C.3     1  UNL1        0.2010
     18 C          64.3299   96.5558   -2.3637 C.3     1  UNL1        0.1693
     19 C          63.7318   94.6048   -3.9718 C.3     1  UNL1        0.1742
     20 O          64.6026   95.1794   -2.8940 O.3     1  UNL1       -0.3492
     21 C          59.3624   89.5368    8.1698 C.3     1  UNL1        0.2374
     22 C          60.1078   88.3550    8.7155 C.3     1  UNL1        0.1909
     23 C          60.0837   86.9629    8.1572 C.3     1  UNL1        0.1783
     24 O          60.9692   86.1053    9.0120 O.3     1  UNL1       -0.3267
     25 C          61.5404   86.9674   10.0985 C.3     1  UNL1        0.2296
     26 O          61.0081   88.3578    9.9153 O.3     1  UNL1       -0.3255
     27 C          62.2220   85.7020   10.5276 C.ar    1  UNL1        0.0409
     28 C          62.0575   85.2006   11.9318 C.ar    1  UNL1        0.0022
     29 C          62.7391   83.9352   12.3609 C.ar    1  UNL1        0.0113
     30 C          63.5851   83.1711   11.3860 C.ar    1  UNL1        0.0585
     31 CL         64.2666   81.9057   11.8151 Cl      1  UNL1       -0.0822
     32 C          63.7495   83.6726    9.9818 C.ar    1  UNL1        0.0226
     33 C          63.0680   84.9379    9.5527 C.ar    1  UNL1        0.0591
     34 CL         63.2324   85.4394    8.1486 Cl      1  UNL1       -0.0824
     35 C          62.2542   87.5650   11.2748 C.3     1  UNL1        0.1682
     36 N          62.6967   88.9976   11.2350 N.ar    1  UNL1       -0.3025
     37 C          62.8327   89.8445   10.0045 C.ar    1  UNL1        0.0982
     38 C          63.3010   91.2052   10.4277 C.ar    1  UNL1        0.1193
     39 N          63.4545   91.1992   11.9198 N.ar    1  UNL1       -0.2223
     40 C          63.0811   89.8349   12.4187 C.ar    1  UNL1        0.1788
@<TRIPOS>BOND
     1    19    20    1
     2    20    18    1
     3    18    17    1
     4    17    14    1
     5    14    15    2
     6    14    16    2
     7    14     8    1
     8     8     9    1
     9     9    10    1
    10    10    11    1
    11    11     2    1
    12     2     3   ar
    13     3     4   ar
    14     4     5   ar
    15     5     1    1
    16     1    21    1
    17    22    21    1
    18    22    23    1
    19    23    24    1
    20    24    25    1
    21    25    35    1
    22    35    36    1
    23    36    37   ar
    24    37    38   ar
    25    38    39   ar
    26    39    40   ar
    27    25    27    1
    28    27    28   ar
    29    28    29   ar
    30    29    30   ar
    31    30    31    1
    32    30    32   ar
    33    32    33   ar
    34    33    34    1
    35    25    26    1
    36     5     6   ar
    37     6     7   ar
    38    11    12    1
    39    12    13    1
    40    13     8    1
    41     7     2   ar
    42    26    22    1
    43    40    36   ar
    44    33    27   ar
@<TRIPOS>MOLECULE
*****
 40 44 0 0 0
SMALL
GASTEIGER

@<TRIPOS>ATOM
      1 O          58.8953   90.8722    6.6878 O.3     1  UNL1       -0.4727
      2 C          60.9764   87.5295    8.8660 C.ar    1  UNL1        0.0481
      3 C          60.1057   87.2261    7.6830 C.ar    1  UNL1        0.0176
      4 C          59.4119   88.3403    6.9569 C.ar    1  UNL1        0.0382
      5 C          59.5890   89.7580    7.4139 C.ar    1  UNL1        0.1388
      6 C          60.4597   90.0614    8.5969 C.ar    1  UNL1        0.0382
      7 C          61.1535   88.9471    9.3230 C.ar    1  UNL1        0.0176
      8 N          63.0575   84.1867   11.0443 N.3     1  UNL1       -0.1559
      9 C          63.2946   84.3877    9.5769 C.3     1  UNL1        0.1168
     10 C          62.6009   85.5020    8.8508 C.3     1  UNL1        0.1099
     11 N          61.6701   86.4152    9.5921 N.pl3   1  UNL1       -0.3045
     12 C          61.4330   86.2142   11.0595 C.3     1  UNL1        0.1099
     13 C          62.1268   85.0999   11.7856 C.3     1  UNL1        0.1168
     14 S          63.7512   83.0724   11.7703 S.O2    1  UNL1        0.0465
     15 O          64.2445   82.5275   10.4628 O.2     1  UNL1       -0.1572
     16 O          63.2579   83.6173   13.0779 O.2     1  UNL1       -0.1572
     17 C          64.4450   81.9581   12.4964 C.3     1  UNL1        0.2010
     18 C          63.7110   81.1737   13.5432 C.3     1  UNL1        0.1693
     19 C          61.1953   80.8761   14.1202 C.3     1  UNL1        0.1742
     20 O          62.3682   80.5816   13.2327 O.3     1  UNL1       -0.3492
     21 C          58.7526   90.8207    5.1955 C.3     1  UNL1        0.2374
     22 C          59.7252   91.5575    4.3232 C.3     1  UNL1        0.1909
     23 C          61.1988   91.2941    4.2277 C.3     1  UNL1        0.1783
     24 O          61.7794   92.2609    3.2386 O.3     1  UNL1       -0.3267
     25 C          60.6646   93.1218    2.7228 C.3     1  UNL1        0.2296
     26 O          59.3950   92.6871    3.3931 O.3     1  UNL1       -0.3255
     27 C          61.7484   93.7646    1.9092 C.ar    1  UNL1        0.0409
     28 C          62.1929   95.1625    2.2231 C.ar    1  UNL1        0.0022
     29 C          63.2768   95.8053    1.4094 C.ar    1  UNL1        0.0113
     30 C          63.9162   95.0503    0.2819 C.ar    1  UNL1        0.0585
     31 CL         65.0000   95.6932   -0.5317 Cl      1  UNL1       -0.0822
     32 C          63.4716   93.6524   -0.0319 C.ar    1  UNL1        0.0226
     33 C          62.3878   93.0097    0.7817 C.ar    1  UNL1        0.0591
     34 CL         61.9433   91.6119    0.4679 Cl      1  UNL1       -0.0824
     35 C          59.7763   94.1171    2.0369 C.3     1  UNL1        0.1682
     36 N          59.3029   93.8604    0.6369 N.ar    1  UNL1       -0.3025
     37 C          58.6894   92.5877    0.1332 C.ar    1  UNL1        0.0982
     38 C          58.3673   92.7720   -1.3202 C.ar    1  UNL1        0.1193
     39 N          58.7818   94.1586   -1.7146 N.ar    1  UNL1       -0.2223
     40 C          59.3601   94.8312   -0.5051 C.ar    1  UNL1        0.1788
@<TRIPOS>BOND
     1    19    20    1
     2    20    18    1
     3    18    17    1
     4    17    14    1
     5    14    15    2
     6    14    16    2
     7    14     8    1
     8     8     9    1
     9     9    10    1
    10    10    11    1
    11    11     2    1
    12     2     3   ar
    13     3     4   ar
    14     4     5   ar
    15     5     1    1
    16     1    21    1
    17    22    21    1
    18    22    23    1
    19    23    24    1
    20    24    25    1
    21    25    35    1
    22    35    36    1
    23    36    37   ar
    24    37    38   ar
    25    38    39   ar
    26    39    40   ar
    27    25    27    1
    28    27    28   ar
    29    28    29   ar
    30    29    30   ar
    31    30    31    1
    32    30    32   ar
    33    32    33   ar
    34    33    34    1
    35    25    26    1
    36     5     6   ar
    37     6     7   ar
    38    11    12    1
    39    12    13    1
    40    13     8    1
    41     7     2   ar
    42    26    22    1
    43    40    36   ar
    44    33    27   ar
@<TRIPOS>MOLECULE
*****
 40 44 0 0 0
SMALL
GASTEIGER

@<TRIPOS>ATOM
      1 O          63.2696   87.9354   17.4663 O.3     1  UNL1       -0.4727
      2 C          63.1076   84.4292   14.6503 C.ar    1  UNL1        0.0481
      3 C          62.1557   84.5068   15.8070 C.ar    1  UNL1        0.0176
      4 C          62.2097   85.6755   16.7456 C.ar    1  UNL1        0.0382
      5 C          63.2156   86.7667   16.5276 C.ar    1  UNL1        0.1388
      6 C          64.1675   86.6891   15.3710 C.ar    1  UNL1        0.0382
      7 C          64.1134   85.5203   14.4323 C.ar    1  UNL1        0.0176
      8 N          62.9455   80.9229   11.8343 N.3     1  UNL1       -0.1559
      9 C          62.5629   80.7469   13.2739 C.3     1  UNL1        0.1168
     10 C          62.6169   81.9157   14.2126 C.3     1  UNL1        0.1099
     11 N          63.0536   83.2604   13.7116 N.pl3   1  UNL1       -0.3045
     12 C          63.4362   83.4364   12.2720 C.3     1  UNL1        0.1099
     13 C          63.3822   82.2676   11.3334 C.3     1  UNL1        0.1168
     14 S          62.8915   79.7541   10.8956 S.O2    1  UNL1        0.0465
     15 O          62.5224   78.8542   12.0375 O.2     1  UNL1       -0.1572
     16 O          63.2607   80.6541    9.7538 O.2     1  UNL1       -0.1572
     17 C          62.8375   78.5854    9.9570 C.3     1  UNL1        0.2010
     18 C          62.8764   77.1868   10.4977 C.3     1  UNL1        0.1693
     19 C          64.8015   76.5512    8.8728 C.3     1  UNL1        0.1742
     20 O          63.9829   76.2575   10.0950 O.3     1  UNL1       -0.3492
     21 C          62.7298   89.2675   17.0373 C.3     1  UNL1        0.2374
     22 C          63.4005   90.0278   15.9318 C.3     1  UNL1        0.1909
     23 C          64.0370   91.3808   16.0522 C.3     1  UNL1        0.1783
     24 O          64.5824   91.7578   14.7067 O.3     1  UNL1       -0.3267
     25 C          64.2830   90.6379   13.7547 C.3     1  UNL1        0.2296
     26 O          63.5526   89.5687   14.5119 O.3     1  UNL1       -0.3255
     27 C          64.9814   91.5111   12.7549 C.ar    1  UNL1        0.0409
     28 C          64.2563   91.9707   11.5248 C.ar    1  UNL1        0.0022
     29 C          64.9547   92.8440   10.5249 C.ar    1  UNL1        0.0113
     30 C          66.3780   93.2576   10.7551 C.ar    1  UNL1        0.0585
     31 CL         67.0764   94.1308    9.7552 Cl      1  UNL1       -0.0822
     32 C          67.1031   92.7979   11.9852 C.ar    1  UNL1        0.0226
     33 C          66.4047   91.9248   12.9850 C.ar    1  UNL1        0.0591
     34 CL         67.1297   91.4651   14.2151 Cl      1  UNL1       -0.0824
     35 C          64.1296   89.7004   12.5938 C.3     1  UNL1        0.1682
     36 N          62.7635   89.2494   12.1694 N.ar    1  UNL1       -0.3025
     37 C          61.5197   90.0877   12.1662 C.ar    1  UNL1        0.0982
     38 C          60.3888   89.2372   11.6685 C.ar    1  UNL1        0.1193
     39 N          60.9337   87.8733   11.3640 N.ar    1  UNL1       -0.2223
     40 C          62.4014   87.8808   11.6736 C.ar    1  UNL1        0.1788
@<TRIPOS>BOND
     1    19    20    1
     2    20    18    1
     3    18    17    1
     4    17    14    1
     5    14    15    2
     6    14    16    2
     7    14     8    1
     8     8     9    1
     9     9    10    1
    10    10    11    1
    11    11     2    1
    12     2     3   ar
    13     3     4   ar
    14     4     5   ar
    15     5     1    1
    16     1    21    1
    17    22    21    1
    18    22    23    1
    19    23    24    1
    20    24    25    1
    21    25    35    1
    22    35    36    1
    23    36    37   ar
    24    37    38   ar
    25    38    39   ar
    26    39    40   ar
    27    25    27    1
    28    27    28   ar
    29    28    29   ar
    30    29    30   ar
    31    30    31    1
    32    30    32   ar
    33    32    33   ar
    34    33    34    1
    35    25    26    1
    36     5     6   ar
    37     6     7   ar
    38    11    12    1
    39    12    13    1
    40    13     8    1
    41     7     2   ar
    42    26    22    1
    43    40    36   ar
    44    33    27   ar
@<TRIPOS>MOLECULE
*****
 40 44 0 0 0
SMALL
GASTEIGER

@<TRIPOS>ATOM
      1 O          59.3013   89.3540    7.1980 O.3     1  UNL1       -0.4727
      2 C          59.5828   92.1611    3.6921 C.ar    1  UNL1        0.0481
      3 C          58.2443   91.8312    4.2832 C.ar    1  UNL1        0.0176
      4 C          58.1504   90.8955    5.4519 C.ar    1  UNL1        0.0382
      5 C          59.3951   90.2897    6.0293 C.ar    1  UNL1        0.1388
      6 C          60.7337   90.6195    5.4382 C.ar    1  UNL1        0.0382
      7 C          60.8275   91.5552    4.2696 C.ar    1  UNL1        0.0176
      8 N          59.8643   94.9682    0.1863 N.3     1  UNL1       -0.1559
      9 C          59.1750   93.6447    0.0339 C.3     1  UNL1        0.1168
     10 C          59.0812   92.7090    1.2025 C.3     1  UNL1        0.1099
     11 N          59.6766   93.0968    2.5235 N.pl3   1  UNL1       -0.3045
     12 C          60.3659   94.4202    2.6759 C.3     1  UNL1        0.1099
     13 C          60.4597   95.3559    1.5072 C.3     1  UNL1        0.1168
     14 S          59.9581   95.9039   -0.9823 S.O2    1  UNL1        0.0465
     15 O          61.1220   96.5947   -0.3358 O.2     1  UNL1       -0.1572
     16 O          58.7942   95.2130   -1.6289 O.2     1  UNL1       -0.1572
     17 C          60.0519   96.8396   -2.1510 C.3     1  UNL1        0.2010
     18 C          60.5866   96.3488   -3.4636 C.3     1  UNL1        0.1693
     19 C          63.0815   95.7135   -3.1141 C.3     1  UNL1        0.1742
     20 O          61.6826   95.3251   -3.4915 O.3     1  UNL1       -0.3492
     21 C          59.7244   89.8127    8.5619 C.3     1  UNL1        0.2374
     22 C          60.3858   88.8517    9.5048 C.3     1  UNL1        0.1909
     23 C          60.1608   88.7737   10.9858 C.3     1  UNL1        0.1783
     24 O          61.0243   87.6737   11.5285 O.3     1  UNL1       -0.3267
     25 C          61.7829   87.0719   10.3830 C.3     1  UNL1        0.2296
     26 O          61.3884   87.7999    9.1322 O.3     1  UNL1       -0.3255
     27 C          62.3614   86.1792   11.4404 C.ar    1  UNL1        0.0409
     28 C          62.1010   84.7024   11.3999 C.ar    1  UNL1        0.0022
     29 C          62.6794   83.8096   12.4573 C.ar    1  UNL1        0.0113
     30 C          63.5183   84.3934   13.5553 C.ar    1  UNL1        0.0585
     31 CL         64.0967   83.5005   14.6127 Cl      1  UNL1       -0.0822
     32 C          63.7787   85.8701   13.5958 C.ar    1  UNL1        0.0226
     33 C          63.2002   86.7629   12.5384 C.ar    1  UNL1        0.0591
     34 CL         63.4606   88.2396   12.5789 Cl      1  UNL1       -0.0824
     35 C          62.6625   86.2835    9.4584 C.3     1  UNL1        0.1682
     36 N          62.0805   85.6453    8.2320 N.ar    1  UNL1       -0.3025
     37 C          62.8400   84.8702    7.1966 C.ar    1  UNL1        0.0982
     38 C          61.8657   84.4160    6.1505 C.ar    1  UNL1        0.1193
     39 N          60.5040   84.9104    6.5394 N.ar    1  UNL1       -0.2223
     40 C          60.6368   85.6702    7.8259 C.ar    1  UNL1        0.1788
@<TRIPOS>BOND
     1    19    20    1
     2    20    18    1
     3    18    17    1
     4    17    14    1
     5    14    15    2
     6    14    16    2
     7    14     8    1
     8     8     9    1
     9     9    10    1
    10    10    11    1
    11    11     2    1
    12     2     3   ar
    13     3     4   ar
    14     4     5   ar
    15     5     1    1
    16     1    21    1
    17    22    21    1
    18    22    23    1
    19    23    24    1
    20    24    25    1
    21    25    35    1
    22    35    36    1
    23    36    37   ar
    24    37    38   ar
    25    38    39   ar
    26    39    40   ar
    27    25    27    1
    28    27    28   ar
    29    28    29   ar
    30    29    30   ar
    31    30    31    1
    32    30    32   ar
    33    32    33   ar
    34    33    34    1
    35    25    26    1
    36     5     6   ar
    37     6     7   ar
    38    11    12    1
    39    12    13    1
    40    13     8    1
    41     7     2   ar
    42    26    22    1
    43    40    36   ar
    44    33    27   ar
@<TRIPOS>MOLECULE
*****
 40 44 0 0 0
SMALL
GASTEIGER

@<TRIPOS>ATOM
      1 O          63.1013   85.4994   16.8204 O.3     1  UNL1       -0.4727
      2 C          64.3516   89.2913   14.7447 C.ar    1  UNL1        0.0481
      3 C          64.9794   87.9842   14.3610 C.ar    1  UNL1        0.0176
      4 C          64.5626   86.7202   15.0529 C.ar    1  UNL1        0.0382
      5 C          63.5180   86.7634   16.1285 C.ar    1  UNL1        0.1388
      6 C          62.8902   88.0705   16.5122 C.ar    1  UNL1        0.0382
      7 C          63.3070   89.3345   15.8203 C.ar    1  UNL1        0.0176
      8 N          65.6019   93.0832   12.6690 N.3     1  UNL1       -0.1559
      9 C          66.1923   92.7277   14.0012 C.3     1  UNL1        0.1168
     10 C          65.7756   91.4637   14.6931 C.3     1  UNL1        0.1099
     11 N          64.7683   90.5553   14.0528 N.pl3   1  UNL1       -0.3045
     12 C          64.1779   90.9107   12.7205 C.3     1  UNL1        0.1099
     13 C          64.5947   92.1747   12.0286 C.3     1  UNL1        0.1168
     14 S          66.0186   94.3471   11.9771 S.O2    1  UNL1        0.0465
     15 O          65.3819   93.8626   10.7084 O.2     1  UNL1       -0.1572
     16 O          66.6554   94.8317   13.2458 O.2     1  UNL1       -0.1572
     17 C          66.4354   95.6111   11.2852 C.3     1  UNL1        0.2010
     18 C          67.0825   95.5478    9.9335 C.3     1  UNL1        0.1693
     19 C          68.1686   93.3945    8.9671 C.3     1  UNL1        0.1742
     20 O          68.2915   94.6859    9.7203 O.3     1  UNL1       -0.3492
     21 C          62.3856   84.4263   16.0548 C.3     1  UNL1        0.2374
     22 C          62.3901   84.4449   14.5550 C.3     1  UNL1        0.1909
     23 C          62.0433   83.2939   13.6579 C.3     1  UNL1        0.1783
     24 O          62.1811   83.7554   12.2373 O.3     1  UNL1       -0.3267
     25 C          62.6132   85.1916   12.2564 C.3     1  UNL1        0.2296
     26 O          62.7424   85.6179   13.6888 O.3     1  UNL1       -0.3255
     27 C          62.5726   85.0600   10.7628 C.ar    1  UNL1        0.0409
     28 C          61.4909   85.7424    9.9789 C.ar    1  UNL1        0.0022
     29 C          61.4503   85.6107    8.4852 C.ar    1  UNL1        0.0113
     30 C          62.4912   84.7967    7.7755 C.ar    1  UNL1        0.0585
     31 CL         62.4506   84.6651    6.2818 Cl      1  UNL1       -0.0822
     32 C          63.5729   84.1143    8.5594 C.ar    1  UNL1        0.0226
     33 C          63.6135   84.2460   10.0530 C.ar    1  UNL1        0.0591
     34 CL         64.6951   83.5636   10.8369 Cl      1  UNL1       -0.0824
     35 C          63.0368   86.6005   11.9633 C.3     1  UNL1        0.1682
     36 N          62.0134   87.6260   11.5749 N.ar    1  UNL1       -0.3025
     37 C          62.2592   88.8408   10.7301 C.ar    1  UNL1        0.0982
     38 C          60.9622   89.5824   10.5962 C.ar    1  UNL1        0.1193
     39 N          59.9149   88.8259   11.3583 N.ar    1  UNL1       -0.2223
     40 C          60.5646   87.6168   11.9632 C.ar    1  UNL1        0.1788
@<TRIPOS>BOND
     1    19    20    1
     2    20    18    1
     3    18    17    1
     4    17    14    1
     5    14    15    2
     6    14    16    2
     7    14     8    1
     8     8     9    1
     9     9    10    1
    10    10    11    1
    11    11     2    1
    12     2     3   ar
    13     3     4   ar
    14     4     5   ar
    15     5     1    1
    16     1    21    1
    17    22    21    1
    18    22    23    1
    19    23    24    1
    20    24    25    1
    21    25    35    1
    22    35    36    1
    23    36    37   ar
    24    37    38   ar
    25    38    39   ar
    26    39    40   ar
    27    25    27    1
    28    27    28   ar
    29    28    29   ar
    30    29    30   ar
    31    30    31    1
    32    30    32   ar
    33    32    33   ar
    34    33    34    1
    35    25    26    1
    36     5     6   ar
    37     6     7   ar
    38    11    12    1
    39    12    13    1
    40    13     8    1
    41     7     2   ar
    42    26    22    1
    43    40    36   ar
    44    33    27   ar
