@<TRIPOS>MOLECULE
*****
 32 34 0 0 0
SMALL
GASTEIGER

@<TRIPOS>ATOM
      1 C          63.7886   89.5247   15.3309 C.3     1  UNL1        0.1688
      2 C          63.0236   89.1551   16.5672 C.3     1  UNL1        0.0609
      3 C          62.9056   87.7163   16.9741 C.3     1  UNL1        0.0758
      4 N          63.5526   86.6468   16.1448 N.3     1  UNL1       -0.2724
      5 C          64.3175   87.0163   14.9086 C.3     1  UNL1        0.0758
      6 C          64.4356   88.4552   14.5016 C.3     1  UNL1        0.0609
      7 O          63.9067   90.9635   14.9240 O.3     1  UNL1       -0.4776
      8 C          65.6281   92.4872   11.6890 C.ar    1  UNL1       -0.0191
      9 C          65.3703   92.1321   13.1234 C.ar    1  UNL1        0.0342
     10 C          64.1645   91.3186   13.4896 C.ar    1  UNL1        0.1555
     11 C          63.2164   90.8601   12.4214 C.ar    1  UNL1        0.1151
     12 N          62.0106   90.0466   12.7876 N.ar    1  UNL1       -0.2408
     13 C          61.0626   89.5882   11.7194 C.ar    1  UNL1        0.0989
     14 C          61.3204   89.9433   10.2850 C.ar    1  UNL1        0.0207
     15 C          62.5262   90.7568    9.9188 C.ar    1  UNL1        0.0032
     16 C          63.4742   91.2152   10.9870 C.ar    1  UNL1        0.0204
     17 C          64.6801   92.0288   10.6208 C.ar    1  UNL1       -0.0026
     18 C          66.8341   93.3007   11.3229 C.3     1  UNL1        0.0265
     19 C          66.8920   94.0013    9.9978 C.3     1  UNL1        0.0047
     20 C          68.6284   92.3689    8.9634 C.3     1  UNL1        0.0000
     21 C          68.0357   93.7433    9.0623 C.3     1  UNL1        0.0003
     22 C          63.4345   85.2079   16.5517 C.3     1  UNL1        0.0721
     23 C          62.4740   84.3031   15.8384 C.3     1  UNL1        0.0188
     24 C          62.9767   83.3452   14.7993 C.3     1  UNL1        0.0202
     25 C          63.0985   83.7848   13.3704 C.3     1  UNL1        0.0911
     26 N          62.3108   84.9627   12.8782 N.3     1  UNL1       -0.1833
     27 H          62.6741   85.7833   13.3630 H       1  UNL1        0.1484
     28 S          62.2943   85.2958   11.4158 S.O2    1  UNL1        0.0407
     29 O          61.2395   86.3330   11.6639 O.2     1  UNL1       -0.1575
     30 O          63.3491   84.2586   11.1677 O.2     1  UNL1       -0.1575
     31 C          62.2778   85.6288    9.9533 C.3     1  UNL1        0.1689
     32 C          61.1179   86.3784    9.3678 C.3     1  UNL1        0.0289
@<TRIPOS>BOND
     1    20    21    1
     2    21    19    1
     3    19    18    1
     4    18     8    1
     5     8     9   ar
     6     9    10   ar
     7    10     7    1
     8     7     1    1
     9     1     2    1
    10     2     3    1
    11     3     4    1
    12     4    22    1
    13    22    23    1
    14    23    24    1
    15    24    25    1
    16    25    26    1
    17    26    28    1
    18    28    29    2
    19    28    30    2
    20    28    31    1
    21    31    32    1
    22     4     5    1
    23     5     6    1
    24    10    11   ar
    25    11    12   ar
    26    12    13   ar
    27    13    14   ar
    28    14    15   ar
    29    15    16   ar
    30    16    17   ar
    31    17     8   ar
    32     6     1    1
    33    16    11   ar
    34    26    27    1
@<TRIPOS>MOLECULE
*****
 32 34 0 0 0
SMALL
GASTEIGER

@<TRIPOS>ATOM
      1 C          63.5918   88.2712   15.6421 C.3     1  UNL1        0.1688
      2 C          64.2969   87.5416   14.5373 C.3     1  UNL1        0.0609
      3 C          64.3822   86.0443   14.5623 C.3     1  UNL1        0.0758
      4 N          63.7626   85.2765   15.6921 N.3     1  UNL1       -0.2724
      5 C          63.0576   86.0060   16.7969 C.3     1  UNL1        0.0758
      6 C          62.9722   87.5034   16.7720 C.3     1  UNL1        0.0609
      7 O          63.5065   89.7686   15.6171 O.3     1  UNL1       -0.4776
      8 C          65.8466   92.0933   13.4105 C.ar    1  UNL1       -0.0191
      9 C          65.3071   91.3308   14.5842 C.ar    1  UNL1        0.0342
     10 C          64.0460   90.5310   14.4434 C.ar    1  UNL1        0.1555
     11 C          63.3242   90.4937   13.1290 C.ar    1  UNL1        0.1151
     12 N          62.0631   89.6939   12.9882 N.ar    1  UNL1       -0.2408
     13 C          61.3415   89.6566   11.6738 C.ar    1  UNL1        0.0989
     14 C          61.8809   90.4191   10.5001 C.ar    1  UNL1        0.0207
     15 C          63.1421   91.2189   10.6408 C.ar    1  UNL1        0.0032
     16 C          63.8637   91.2562   11.9553 C.ar    1  UNL1        0.0204
     17 C          65.1249   92.0560   12.0960 C.ar    1  UNL1       -0.0026
     18 C          67.1078   92.8932   13.5513 C.3     1  UNL1        0.0265
     19 C          67.3079   93.7732   14.7494 C.3     1  UNL1        0.0047
     20 C          68.5317   92.1946   16.4107 C.3     1  UNL1        0.0000
     21 C          68.4435   93.5088   15.6929 C.3     1  UNL1        0.0003
     22 C          63.8479   83.7792   15.7171 C.3     1  UNL1        0.0721
     23 C          62.9066   82.9602   14.8843 C.3     1  UNL1        0.0188
     24 C          63.3762   82.3609   13.5919 C.3     1  UNL1        0.0202
     25 C          63.0648   83.0423   12.2924 C.3     1  UNL1        0.0911
     26 N          62.5261   84.4422   12.2898 N.3     1  UNL1       -0.1833
     27 H          63.1490   84.9985   12.8754 H       1  UNL1        0.1484
     28 S          62.3718   85.1840   10.9952 S.O2    1  UNL1        0.0407
     29 O          63.3092   84.2197   10.3309 O.2     1  UNL1       -0.1575
     30 O          61.4343   86.1483   11.6595 O.2     1  UNL1       -0.1575
     31 C          62.2173   85.9258    9.7006 C.3     1  UNL1        0.1689
     32 C          62.8999   85.4241    8.4627 C.3     1  UNL1        0.0289
@<TRIPOS>BOND
     1    20    21    1
     2    21    19    1
     3    19    18    1
     4    18     8    1
     5     8     9   ar
     6     9    10   ar
     7    10     7    1
     8     7     1    1
     9     1     2    1
    10     2     3    1
    11     3     4    1
    12     4    22    1
    13    22    23    1
    14    23    24    1
    15    24    25    1
    16    25    26    1
    17    26    28    1
    18    28    29    2
    19    28    30    2
    20    28    31    1
    21    31    32    1
    22     4     5    1
    23     5     6    1
    24    10    11   ar
    25    11    12   ar
    26    12    13   ar
    27    13    14   ar
    28    14    15   ar
    29    15    16   ar
    30    16    17   ar
    31    17     8   ar
    32     6     1    1
    33    16    11   ar
    34    26    27    1
@<TRIPOS>MOLECULE
*****
 32 34 0 0 0
SMALL
GASTEIGER

@<TRIPOS>ATOM
      1 C          63.9452   89.2200   15.2580 C.3     1  UNL1        0.1688
      2 C          63.1636   88.9887   16.5173 C.3     1  UNL1        0.0609
      3 C          62.8992   87.5898   16.9896 C.3     1  UNL1        0.0758
      4 N          63.4162   86.4221   16.2027 N.3     1  UNL1       -0.2724
      5 C          64.1977   86.6534   14.9434 C.3     1  UNL1        0.0758
      6 C          64.4622   88.0523   14.4710 C.3     1  UNL1        0.0609
      7 O          64.2096   90.6189   14.7857 O.3     1  UNL1       -0.4776
      8 C          63.1676   90.4396   10.9605 C.ar    1  UNL1       -0.0191
      9 C          63.2605   90.1110   12.4211 C.ar    1  UNL1        0.0342
     10 C          64.1167   90.9475   13.3251 C.ar    1  UNL1        0.1555
     11 C          64.8799   92.1127   12.7684 C.ar    1  UNL1        0.1151
     12 N          65.7361   92.9493   13.6724 N.ar    1  UNL1       -0.2408
     13 C          66.4993   94.1144   13.1158 C.ar    1  UNL1        0.0989
     14 C          66.4063   94.4430   11.6552 C.ar    1  UNL1        0.0207
     15 C          65.5502   93.6065   10.7512 C.ar    1  UNL1        0.0032
     16 C          64.7870   92.4413   11.3078 C.ar    1  UNL1        0.0204
     17 C          63.9308   91.6047   10.4038 C.ar    1  UNL1       -0.0026
     18 C          62.3114   89.6030   10.0565 C.3     1  UNL1        0.0265
     19 C          60.8278   89.8205   10.0158 C.3     1  UNL1        0.0047
     20 C          59.4563   89.6845   12.2182 C.3     1  UNL1        0.0000
     21 C          59.9317   89.0540   10.9429 C.3     1  UNL1        0.0003
     22 C          63.1518   85.0233   16.6750 C.3     1  UNL1        0.0721
     23 C          62.4044   84.0638   15.7969 C.3     1  UNL1        0.0188
     24 C          63.1429   83.2512   14.7750 C.3     1  UNL1        0.0202
     25 C          62.7116   83.2811   13.3387 C.3     1  UNL1        0.0911
     26 N          63.4041   84.1894   12.3664 N.3     1  UNL1       -0.1833
     27 H          64.0502   83.6098   11.8307 H       1  UNL1        0.1484
     28 S          62.6017   84.9756   11.3723 S.O2    1  UNL1        0.0407
     29 O          63.3027   84.2707   10.2491 O.2     1  UNL1       -0.1575
     30 O          61.9008   85.6804   12.4956 O.2     1  UNL1       -0.1575
     31 C          61.7993   85.7618   10.3783 C.3     1  UNL1        0.1689
     32 C          62.3133   85.9518    8.9820 C.3     1  UNL1        0.0289
@<TRIPOS>BOND
     1    20    21    1
     2    21    19    1
     3    19    18    1
     4    18     8    1
     5     8     9   ar
     6     9    10   ar
     7    10     7    1
     8     7     1    1
     9     1     2    1
    10     2     3    1
    11     3     4    1
    12     4    22    1
    13    22    23    1
    14    23    24    1
    15    24    25    1
    16    25    26    1
    17    26    28    1
    18    28    29    2
    19    28    30    2
    20    28    31    1
    21    31    32    1
    22     4     5    1
    23     5     6    1
    24    10    11   ar
    25    11    12   ar
    26    12    13   ar
    27    13    14   ar
    28    14    15   ar
    29    15    16   ar
    30    16    17   ar
    31    17     8   ar
    32     6     1    1
    33    16    11   ar
    34    26    27    1
@<TRIPOS>MOLECULE
*****
 32 34 0 0 0
SMALL
GASTEIGER

@<TRIPOS>ATOM
      1 C          62.5605   89.9734   11.8338 C.3     1  UNL1        0.1688
      2 C          62.8324   90.7151   10.5586 C.3     1  UNL1        0.0609
      3 C          63.9233   91.7432   10.5070 C.3     1  UNL1        0.0758
      4 N          64.7424   92.0298   11.7305 N.3     1  UNL1       -0.2724
      5 C          64.4705   91.2882   13.0056 C.3     1  UNL1        0.0758
      6 C          63.3795   90.2600   13.0573 C.3     1  UNL1        0.0609
      7 O          61.4695   88.9452   11.8854 O.3     1  UNL1       -0.4776
      8 C          62.5504   85.2767   10.8256 C.ar    1  UNL1       -0.0191
      9 C          62.4248   86.5440   11.6181 C.ar    1  UNL1        0.0342
     10 C          61.5952   87.6779   11.0929 C.ar    1  UNL1        0.1555
     11 C          60.8912   87.5446    9.7750 C.ar    1  UNL1        0.1151
     12 N          60.0616   88.6785    9.2498 N.ar    1  UNL1       -0.2408
     13 C          59.3577   88.5452    7.9320 C.ar    1  UNL1        0.0989
     14 C          59.4833   87.2778    7.1394 C.ar    1  UNL1        0.0207
     15 C          60.3129   86.1439    7.6647 C.ar    1  UNL1        0.0032
     16 C          61.0168   86.2773    8.9825 C.ar    1  UNL1        0.0204
     17 C          61.8465   85.1433    9.5078 C.ar    1  UNL1       -0.0026
     18 C          63.3800   84.1427   11.3509 C.3     1  UNL1        0.0265
     19 C          63.7829   83.0225   10.4382 C.3     1  UNL1        0.0047
     20 C          62.7686   81.2959   12.0935 C.3     1  UNL1        0.0000
     21 C          63.5525   81.5990   10.8511 C.3     1  UNL1        0.0003
     22 C          65.8333   93.0579   11.6788 C.3     1  UNL1        0.0721
     23 C          67.2397   92.6440   11.3610 C.3     1  UNL1        0.0188
     24 C          67.6253   92.3215    9.9478 C.3     1  UNL1        0.0202
     25 C          68.1945   93.3907    9.0631 C.3     1  UNL1        0.0911
     26 N          68.2110   94.8174    9.5263 N.3     1  UNL1       -0.1833
     27 H          69.0805   95.2276    9.1856 H       1  UNL1        0.1484
     28 S          67.1062   95.7490    9.1248 S.O2    1  UNL1        0.0407
     29 O          67.2112   95.2637    7.7094 O.2     1  UNL1       -0.1575
     30 O          67.0011   96.2344   10.5402 O.2     1  UNL1       -0.1575
     31 C          66.0013   96.6808    8.7233 C.3     1  UNL1        0.1689
     32 C          65.6560   96.8542    7.2739 C.3     1  UNL1        0.0289
@<TRIPOS>BOND
     1    20    21    1
     2    21    19    1
     3    19    18    1
     4    18     8    1
     5     8     9   ar
     6     9    10   ar
     7    10     7    1
     8     7     1    1
     9     1     2    1
    10     2     3    1
    11     3     4    1
    12     4    22    1
    13    22    23    1
    14    23    24    1
    15    24    25    1
    16    25    26    1
    17    26    28    1
    18    28    29    2
    19    28    30    2
    20    28    31    1
    21    31    32    1
    22     4     5    1
    23     5     6    1
    24    10    11   ar
    25    11    12   ar
    26    12    13   ar
    27    13    14   ar
    28    14    15   ar
    29    15    16   ar
    30    16    17   ar
    31    17     8   ar
    32     6     1    1
    33    16    11   ar
    34    26    27    1
@<TRIPOS>MOLECULE
*****
 32 34 0 0 0
SMALL
GASTEIGER

@<TRIPOS>ATOM
      1 C          62.9847   89.9103   11.8829 C.3     1  UNL1        0.1688
      2 C          63.5498   88.9529   12.8900 C.3     1  UNL1        0.0609
      3 C          63.2664   87.4848   12.7704 C.3     1  UNL1        0.0758
      4 N          62.4179   86.9740   11.6438 N.3     1  UNL1       -0.2724
      5 C          61.8529   87.9313   10.6367 C.3     1  UNL1        0.0758
      6 C          62.1363   89.3995   10.7563 C.3     1  UNL1        0.0609
      7 O          63.2682   91.3784   12.0024 O.3     1  UNL1       -0.4776
      8 C          66.8460   92.6116   10.8073 C.ar    1  UNL1       -0.0191
      9 C          65.4286   92.1223   10.7659 C.ar    1  UNL1        0.0342
     10 C          64.6855   91.8677   12.0438 C.ar    1  UNL1        0.1555
     11 C          65.3597   92.1024   13.3631 C.ar    1  UNL1        0.1151
     12 N          64.6166   91.8478   14.6409 N.ar    1  UNL1       -0.2408
     13 C          65.2908   92.0825   15.9601 C.ar    1  UNL1        0.0989
     14 C          66.7082   92.5718   16.0014 C.ar    1  UNL1        0.0207
     15 C          67.4513   92.8264   14.7236 C.ar    1  UNL1        0.0032
     16 C          66.7771   92.5917   13.4044 C.ar    1  UNL1        0.0204
     17 C          67.5202   92.8463   12.1265 C.ar    1  UNL1       -0.0026
     18 C          67.5891   92.8662    9.5294 C.3     1  UNL1        0.0265
     19 C          67.9955   94.2630    9.1636 C.3     1  UNL1        0.0047
     20 C          67.3376   96.5969    8.2309 C.3     1  UNL1        0.0000
     21 C          67.0710   95.1262    8.3574 C.3     1  UNL1        0.0003
     22 C          62.1345   85.5059   11.5243 C.3     1  UNL1        0.0721
     23 C          63.1217   84.5062   12.0498 C.3     1  UNL1        0.0188
     24 C          62.8155   83.7356   13.2998 C.3     1  UNL1        0.0202
     25 C          63.2451   84.2694   14.6341 C.3     1  UNL1        0.0911
     26 N          62.2153   84.6853   15.6424 N.3     1  UNL1       -0.1833
     27 H          61.9888   83.8559   16.1913 H       1  UNL1        0.1484
     28 S          62.5223   85.7809   16.6198 S.O2    1  UNL1        0.0407
     29 O          61.0547   85.9834   16.8539 O.2     1  UNL1       -0.1575
     30 O          63.9900   85.5783   16.3858 O.2     1  UNL1       -0.1575
     31 C          62.8295   86.8765   17.5973 C.3     1  UNL1        0.1689
     32 C          63.0612   88.2752   17.1076 C.3     1  UNL1        0.0289
@<TRIPOS>BOND
     1    20    21    1
     2    21    19    1
     3    19    18    1
     4    18     8    1
     5     8     9   ar
     6     9    10   ar
     7    10     7    1
     8     7     1    1
     9     1     2    1
    10     2     3    1
    11     3     4    1
    12     4    22    1
    13    22    23    1
    14    23    24    1
    15    24    25    1
    16    25    26    1
    17    26    28    1
    18    28    29    2
    19    28    30    2
    20    28    31    1
    21    31    32    1
    22     4     5    1
    23     5     6    1
    24    10    11   ar
    25    11    12   ar
    26    12    13   ar
    27    13    14   ar
    28    14    15   ar
    29    15    16   ar
    30    16    17   ar
    31    17     8   ar
    32     6     1    1
    33    16    11   ar
    34    26    27    1
@<TRIPOS>MOLECULE
*****
 32 34 0 0 0
SMALL
GASTEIGER

@<TRIPOS>ATOM
      1 C          62.5857   90.0562   11.7942 C.3     1  UNL1        0.1688
      2 C          62.8827   90.7081   10.4763 C.3     1  UNL1        0.0609
      3 C          63.9907   91.7135   10.3696 C.3     1  UNL1        0.0758
      4 N          64.8019   92.0670   11.5808 N.3     1  UNL1       -0.2724
      5 C          64.5050   91.4152   12.8987 C.3     1  UNL1        0.0758
      6 C          63.3969   90.4097   13.0054 C.3     1  UNL1        0.0609
      7 O          61.4777   89.0508   11.9009 O.3     1  UNL1       -0.4776
      8 C          62.4659   85.3127   11.0065 C.ar    1  UNL1       -0.0191
      9 C          62.3698   86.6158   11.7432 C.ar    1  UNL1        0.0342
     10 C          61.5738   87.7477   11.1643 C.ar    1  UNL1        0.1555
     11 C          60.8739   87.5766    9.8486 C.ar    1  UNL1        0.1151
     12 N          60.0780   88.7085    9.2696 N.ar    1  UNL1       -0.2408
     13 C          59.3782   88.5373    7.9540 C.ar    1  UNL1        0.0989
     14 C          59.4743   87.2342    7.2173 C.ar    1  UNL1        0.0207
     15 C          60.2702   86.1023    7.7963 C.ar    1  UNL1        0.0032
     16 C          60.9701   86.2735    9.1119 C.ar    1  UNL1        0.0204
     17 C          61.7661   85.1415    9.6909 C.ar    1  UNL1       -0.0026
     18 C          63.2619   84.1808   11.5855 C.3     1  UNL1        0.0265
     19 C          63.3271   83.9933   13.0723 C.3     1  UNL1        0.0047
     20 C          64.5817   85.5369   14.7437 C.3     1  UNL1        0.0000
     21 C          64.5763   84.3552   13.8198 C.3     1  UNL1        0.0003
     22 C          65.9099   93.0724   11.4741 C.3     1  UNL1        0.0721
     23 C          67.0801   92.8062   10.5740 C.3     1  UNL1        0.0188
     24 C          68.3118   92.1472   11.1203 C.3     1  UNL1        0.0202
     25 C          68.2717   91.4773   12.4617 C.3     1  UNL1        0.0911
     26 N          68.9829   92.0939   13.6297 N.3     1  UNL1       -0.1833
     27 H          69.3738   92.9777   13.3032 H       1  UNL1        0.1484
     28 S          68.2312   92.3932   14.8927 S.O2    1  UNL1        0.0407
     29 O          69.1498   93.5470   15.1661 O.2     1  UNL1       -0.1575
     30 O          67.3125   91.2395   14.6193 O.2     1  UNL1       -0.1575
     31 C          67.4793   92.6925   16.1558 C.3     1  UNL1        0.1689
     32 C          65.9823   92.6013   16.1770 C.3     1  UNL1        0.0289
@<TRIPOS>BOND
     1    20    21    1
     2    21    19    1
     3    19    18    1
     4    18     8    1
     5     8     9   ar
     6     9    10   ar
     7    10     7    1
     8     7     1    1
     9     1     2    1
    10     2     3    1
    11     3     4    1
    12     4    22    1
    13    22    23    1
    14    23    24    1
    15    24    25    1
    16    25    26    1
    17    26    28    1
    18    28    29    2
    19    28    30    2
    20    28    31    1
    21    31    32    1
    22     4     5    1
    23     5     6    1
    24    10    11   ar
    25    11    12   ar
    26    12    13   ar
    27    13    14   ar
    28    14    15   ar
    29    15    16   ar
    30    16    17   ar
    31    17     8   ar
    32     6     1    1
    33    16    11   ar
    34    26    27    1
@<TRIPOS>MOLECULE
*****
 32 34 0 0 0
SMALL
GASTEIGER

@<TRIPOS>ATOM
      1 C          62.9731   90.2806   12.1532 C.3     1  UNL1        0.1688
      2 C          61.8967   90.1618   11.1151 C.3     1  UNL1        0.0609
      3 C          61.4013   88.8083   10.6999 C.3     1  UNL1        0.0758
      4 N          61.9822   87.5735   11.3226 N.3     1  UNL1       -0.2724
      5 C          63.0585   87.6922   12.3606 C.3     1  UNL1        0.0758
      6 C          63.5540   89.0458   12.7759 C.3     1  UNL1        0.0609
      7 O          63.4684   91.6341   12.5684 O.3     1  UNL1       -0.4776
      8 C          67.0279   92.3896   10.9844 C.ar    1  UNL1       -0.0191
      9 C          65.5700   92.0565   11.1005 C.ar    1  UNL1        0.0342
     10 C          64.9264   91.9673   12.4524 C.ar    1  UNL1        0.1555
     11 C          65.7406   92.2113   13.6883 C.ar    1  UNL1        0.1151
     12 N          65.0970   92.1221   15.0402 N.ar    1  UNL1       -0.2408
     13 C          65.9113   92.3661   16.2761 C.ar    1  UNL1        0.0989
     14 C          67.3692   92.6993   16.1600 C.ar    1  UNL1        0.0207
     15 C          68.0128   92.7885   14.8081 C.ar    1  UNL1        0.0032
     16 C          67.1986   92.5445   13.5723 C.ar    1  UNL1        0.0204
     17 C          67.8422   92.6336   12.2203 C.ar    1  UNL1       -0.0026
     18 C          67.6716   92.4788    9.6324 C.3     1  UNL1        0.0265
     19 C          68.3847   93.7332    9.2225 C.3     1  UNL1        0.0047
     20 C          67.0111   95.8145    9.9512 C.3     1  UNL1        0.0000
     21 C          67.5990   94.9606    8.8672 C.3     1  UNL1        0.0003
     22 C          61.4868   86.2199   10.9073 C.3     1  UNL1        0.0721
     23 C          62.3381   85.0065   11.1378 C.3     1  UNL1        0.0188
     24 C          63.2196   84.4893   10.0399 C.3     1  UNL1        0.0202
     25 C          63.9825   83.2118   10.2297 C.3     1  UNL1        0.0911
     26 N          64.7758   82.9912   11.4836 N.3     1  UNL1       -0.1833
     27 H          65.2352   83.8756   11.7008 H       1  UNL1        0.1484
     28 S          64.0867   82.5417   12.7378 S.O2    1  UNL1        0.0407
     29 O          64.7754   83.6302   13.5063 O.2     1  UNL1       -0.1575
     30 O          63.3979   81.4532   11.9692 O.2     1  UNL1       -0.1575
     31 C          63.3975   82.0921   13.9920 C.3     1  UNL1        0.1689
     32 C          62.0575   81.4226   13.9127 C.3     1  UNL1        0.0289
@<TRIPOS>BOND
     1    20    21    1
     2    21    19    1
     3    19    18    1
     4    18     8    1
     5     8     9   ar
     6     9    10   ar
     7    10     7    1
     8     7     1    1
     9     1     2    1
    10     2     3    1
    11     3     4    1
    12     4    22    1
    13    22    23    1
    14    23    24    1
    15    24    25    1
    16    25    26    1
    17    26    28    1
    18    28    29    2
    19    28    30    2
    20    28    31    1
    21    31    32    1
    22     4     5    1
    23     5     6    1
    24    10    11   ar
    25    11    12   ar
    26    12    13   ar
    27    13    14   ar
    28    14    15   ar
    29    15    16   ar
    30    16    17   ar
    31    17     8   ar
    32     6     1    1
    33    16    11   ar
    34    26    27    1
@<TRIPOS>MOLECULE
*****
 32 34 0 0 0
SMALL
GASTEIGER

@<TRIPOS>ATOM
      1 C          62.6850   89.1371   11.7032 C.3     1  UNL1        0.1688
      2 C          62.5847   89.8545   10.3896 C.3     1  UNL1        0.0609
      3 C          63.3353   91.1353   10.1753 C.3     1  UNL1        0.0758
      4 N          64.1863   91.6988   11.2745 N.3     1  UNL1       -0.2724
      5 C          64.2866   90.9816   12.5880 C.3     1  UNL1        0.0758
      6 C          63.5359   89.7007   12.8024 C.3     1  UNL1        0.0609
      7 O          61.9343   87.8563   11.9176 O.3     1  UNL1       -0.4776
      8 C          62.7882   85.2241    9.0729 C.ar    1  UNL1       -0.0191
      9 C          62.3313   86.4832    9.7480 C.ar    1  UNL1        0.0342
     10 C          62.3913   86.5972   11.2425 C.ar    1  UNL1        0.1555
     11 C          62.9082   85.4520   12.0619 C.ar    1  UNL1        0.1151
     12 N          62.9682   85.5659   13.5563 N.ar    1  UNL1       -0.2408
     13 C          63.4852   84.4208   14.3756 C.ar    1  UNL1        0.0989
     14 C          63.9421   83.1616   13.7005 C.ar    1  UNL1        0.0207
     15 C          63.8821   83.0477   12.2061 C.ar    1  UNL1        0.0032
     16 C          63.3652   84.1928   11.3867 C.ar    1  UNL1        0.0204
     17 C          63.3052   84.0789    9.8922 C.ar    1  UNL1       -0.0026
     18 C          62.7282   85.1102    7.5784 C.3     1  UNL1        0.0265
     19 C          61.4073   85.1922    6.8724 C.3     1  UNL1        0.0047
     20 C          59.5480   86.9279    7.4022 C.3     1  UNL1        0.0000
     21 C          60.1744   85.5843    7.6314 C.3     1  UNL1        0.0003
     22 C          64.9369   92.9797   11.0601 C.3     1  UNL1        0.0721
     23 C          66.1658   93.2732   11.8688 C.3     1  UNL1        0.0188
     24 C          67.4746   92.6395   11.5010 C.3     1  UNL1        0.0202
     25 C          68.0674   91.5785   12.3801 C.3     1  UNL1        0.0911
     26 N          68.8480   91.9659   13.6010 N.3     1  UNL1       -0.1833
     27 H          69.4306   92.7608   13.3381 H       1  UNL1        0.1484
     28 S          68.1291   92.3532   14.8592 S.O2    1  UNL1        0.0407
     29 O          69.1147   93.4620   15.0809 O.2     1  UNL1       -0.1575
     30 O          67.1436   91.2444   14.6374 O.2     1  UNL1       -0.1575
     31 C          67.4101   92.7406   16.1174 C.3     1  UNL1        0.1689
     32 C          65.9221   92.5763   16.2118 C.3     1  UNL1        0.0289
@<TRIPOS>BOND
     1    20    21    1
     2    21    19    1
     3    19    18    1
     4    18     8    1
     5     8     9   ar
     6     9    10   ar
     7    10     7    1
     8     7     1    1
     9     1     2    1
    10     2     3    1
    11     3     4    1
    12     4    22    1
    13    22    23    1
    14    23    24    1
    15    24    25    1
    16    25    26    1
    17    26    28    1
    18    28    29    2
    19    28    30    2
    20    28    31    1
    21    31    32    1
    22     4     5    1
    23     5     6    1
    24    10    11   ar
    25    11    12   ar
    26    12    13   ar
    27    13    14   ar
    28    14    15   ar
    29    15    16   ar
    30    16    17   ar
    31    17     8   ar
    32     6     1    1
    33    16    11   ar
    34    26    27    1
@<TRIPOS>MOLECULE
*****
 32 34 0 0 0
SMALL
GASTEIGER

@<TRIPOS>ATOM
      1 C          62.8303   85.1320   10.1192 C.3     1  UNL1        0.1688
      2 C          61.6396   85.7356   10.8034 C.3     1  UNL1        0.0609
      3 C          60.5211   86.3157    9.9895 C.3     1  UNL1        0.0758
      4 N          60.5932   86.2922    8.4914 N.3     1  UNL1       -0.2724
      5 C          61.7838   85.6887    7.8072 C.3     1  UNL1        0.0758
      6 C          62.9024   85.1085    8.6211 C.3     1  UNL1        0.0609
      7 O          63.9488   84.5520   10.9330 O.3     1  UNL1       -0.4776
      8 C          63.6724   84.6893   14.8896 C.ar    1  UNL1       -0.0191
      9 C          63.9169   85.1090   13.4705 C.ar    1  UNL1        0.0342
     10 C          63.7043   84.1322   12.3522 C.ar    1  UNL1        0.1555
     11 C          63.2472   82.7355   12.6530 C.ar    1  UNL1        0.1151
     12 N          63.0346   81.7587   11.5348 N.ar    1  UNL1       -0.2408
     13 C          62.5775   80.3621   11.8357 C.ar    1  UNL1        0.0989
     14 C          62.3330   79.9424   13.2548 C.ar    1  UNL1        0.0207
     15 C          62.5456   80.9192   14.3731 C.ar    1  UNL1        0.0032
     16 C          63.0027   82.3158   14.0722 C.ar    1  UNL1        0.0204
     17 C          63.2153   83.2927   15.1905 C.ar    1  UNL1       -0.0026
     18 C          63.8850   85.6662   16.0079 C.3     1  UNL1        0.0265
     19 C          62.8106   85.8782   17.0330 C.3     1  UNL1        0.0047
     20 C          63.0919   88.4586   16.9221 C.3     1  UNL1        0.0000
     21 C          62.6142   87.2337   17.6443 C.3     1  UNL1        0.0003
     22 C          59.4747   86.8723    7.6776 C.3     1  UNL1        0.0721
     23 C          59.2974   88.3597    7.5990 C.3     1  UNL1        0.0188
     24 C          60.2419   89.2672    8.3300 C.3     1  UNL1        0.0202
     25 C          60.0239   89.5622    9.7844 C.3     1  UNL1        0.0911
     26 N          60.7782   90.6781   10.4447 N.3     1  UNL1       -0.1833
     27 H          60.1113   91.1755   11.0348 H       1  UNL1        0.1484
     28 S          61.9711   90.3731   11.3014 S.O2    1  UNL1        0.0407
     29 O          61.0944   89.6118   12.2510 O.2     1  UNL1       -0.1575
     30 O          62.8477   91.1343   10.3517 O.2     1  UNL1       -0.1575
     31 C          63.1641   90.0681   12.1581 C.3     1  UNL1        0.1689
     32 C          63.4129   88.6645   12.6251 C.3     1  UNL1        0.0289
@<TRIPOS>BOND
     1    20    21    1
     2    21    19    1
     3    19    18    1
     4    18     8    1
     5     8     9   ar
     6     9    10   ar
     7    10     7    1
     8     7     1    1
     9     1     2    1
    10     2     3    1
    11     3     4    1
    12     4    22    1
    13    22    23    1
    14    23    24    1
    15    24    25    1
    16    25    26    1
    17    26    28    1
    18    28    29    2
    19    28    30    2
    20    28    31    1
    21    31    32    1
    22     4     5    1
    23     5     6    1
    24    10    11   ar
    25    11    12   ar
    26    12    13   ar
    27    13    14   ar
    28    14    15   ar
    29    15    16   ar
    30    16    17   ar
    31    17     8   ar
    32     6     1    1
    33    16    11   ar
    34    26    27    1
