@<TRIPOS>MOLECULE
*****
 37 40 0 0 0
SMALL
GASTEIGER

@<TRIPOS>ATOM
      1 N          64.3732   91.6220   11.6122 N.ar    1  UNL1       -0.2706
      2 C          64.9416   91.8472   12.9821 C.ar    1  UNL1        0.3343
      3 O          65.7230   93.0939   13.2742 O.2     1  UNL1       -0.2462
      4 N          64.7286   90.8258   14.0596 N.ar    1  UNL1       -0.2455
      5 C          65.2969   91.0510   15.4295 C.3     1  UNL1        0.1383
      6 C          63.9472   89.5792   13.7676 C.ar    1  UNL1        0.2816
      7 O          63.7342   88.5578   14.8452 O.2     1  UNL1       -0.2652
      8 C          63.3789   89.3540   12.3978 C.ar    1  UNL1        0.1342
      9 C          63.5919   90.3754   11.3201 C.ar    1  UNL1        0.0876
     10 C          62.9166   89.8828   10.0746 C.ar    1  UNL1        0.0515
     11 C          62.2862   88.5570   10.3825 C.ar    1  UNL1        0.1142
     12 N          62.5719   88.2301   11.8183 N.ar    1  UNL1       -0.3068
     13 N          61.5069   87.7072    9.4230 N.pl3   1  UNL1       -0.2932
     14 C          60.0429   87.9597    9.2159 C.3     1  UNL1        0.0922
     15 C          59.2637   87.1099    8.2564 C.3     1  UNL1        0.0228
     16 C          59.9484   86.0075    7.5041 C.3     1  UNL1        0.0177
     17 C          61.4124   85.7550    7.7112 C.3     1  UNL1        0.0575
     18 C          62.7695   85.1323    7.5679 C.3     1  UNL1        0.0173
     19 N          61.1045   84.6889    6.7020 N.3     1  UNL1       -0.3219
     20 C          62.1916   86.6049    8.6707 C.3     1  UNL1        0.1062
     21 H          60.1164   84.7322    6.4524 H       1  UNL1        0.1188
     22 H          61.3150   83.7734    7.0994 H       1  UNL1        0.1188
     23 C          64.5863   92.6435   10.5346 C.3     1  UNL1        0.1956
     24 C          67.6569   94.9920    9.6370 C.3     1  UNL1        0.1150
     25 N          66.2672   94.5464    9.9837 N.am    1  UNL1       -0.2744
     26 C          65.1688   95.5578   10.1262 C.3     1  UNL1        0.1150
     27 C          65.9759   93.0891   10.1879 C.2     1  UNL1        0.2490
     28 O          67.0743   92.0776   10.0454 O.2     1  UNL1       -0.2728
     29 C          62.1285   86.9961   12.5467 C.3     1  UNL1        0.1350
     30 C          62.9018   85.7194   12.3989 C.ar    1  UNL1        0.0132
     31 C          62.8155   84.9335   11.1242 C.ar    1  UNL1        0.0281
     32 C          63.5888   83.6567   10.9764 C.ar    1  UNL1        0.1399
     33 F          63.5024   82.8708    9.7017 F       1  UNL1       -0.2042
     34 C          64.4486   83.1659   12.1033 C.ar    1  UNL1        0.0305
     35 C          64.5350   83.9518   13.3779 C.ar    1  UNL1        0.0134
     36 C          63.7617   85.2285   13.5258 C.ar    1  UNL1        0.0557
     37 CL         63.8480   86.0144   14.8005 Cl      1  UNL1       -0.0825
@<TRIPOS>BOND
     1    24    25    1
     2    25    26    1
     3    25    27   am
     4    27    28    2
     5    27    23    1
     6    23     1    1
     7     1     2   ar
     8     2     3    2
     9     2     4   ar
    10     4     5    1
    11     4     6   ar
    12     6     7    2
    13     6     8   ar
    14     8     9   ar
    15     9    10   ar
    16    10    11   ar
    17    11    13    1
    18    13    14    1
    19    14    15    1
    20    15    16    1
    21    16    17    1
    22    17    18    1
    23    17    19    1
    24    17    20    1
    25    11    12   ar
    26    12    29    1
    27    29    30    1
    28    30    31   ar
    29    31    32   ar
    30    32    33    1
    31    32    34   ar
    32    34    35   ar
    33    35    36   ar
    34    36    37    1
    35     9     1   ar
    36    20    13    1
    37    36    30   ar
    38    12     8   ar
    39    19    21    1
    40    19    22    1
@<TRIPOS>MOLECULE
*****
 37 40 0 0 0
SMALL
GASTEIGER

@<TRIPOS>ATOM
      1 N          65.8589   93.0976   13.5597 N.ar    1  UNL1       -0.2706
      2 C          65.8738   93.7682   12.2180 C.ar    1  UNL1        0.3343
      3 O          66.5191   95.1130   12.0587 O.2     1  UNL1       -0.2462
      4 N          65.2433   93.0942   11.0356 N.ar    1  UNL1       -0.2455
      5 C          65.2582   93.7647    9.6939 C.3     1  UNL1        0.1383
      6 C          64.5980   91.7495   11.1948 C.ar    1  UNL1        0.2816
      7 O          63.9676   91.0754   10.0124 O.2     1  UNL1       -0.2652
      8 C          64.5831   91.0789   12.5365 C.ar    1  UNL1        0.1342
      9 C          65.2136   91.7530   13.7189 C.ar    1  UNL1        0.0876
     10 C          65.0459   90.8547   14.9085 C.ar    1  UNL1        0.0515
     11 C          64.3118   89.6255   14.4612 C.ar    1  UNL1        0.1142
     12 N          64.0258   89.7640   12.9953 N.ar    1  UNL1       -0.3068
     13 N          63.9306   88.4620   15.3278 N.pl3   1  UNL1       -0.2932
     14 C          63.1655   88.6913   16.5974 C.3     1  UNL1        0.0922
     15 C          62.7843   87.5277   17.4639 C.3     1  UNL1        0.0228
     16 C          63.1682   86.1348   17.0608 C.3     1  UNL1        0.0177
     17 C          63.9334   85.9055   15.7912 C.3     1  UNL1        0.0575
     18 C          64.6529   85.1852   14.6896 C.3     1  UNL1        0.0173
     19 N          63.8021   84.4918   16.2751 N.3     1  UNL1       -0.3219
     20 C          64.3145   87.0691   14.9247 C.3     1  UNL1        0.1062
     21 H          63.2891   84.4804   17.1566 H       1  UNL1        0.1188
     22 H          64.7303   84.0933   16.4168 H       1  UNL1        0.1188
     23 C          66.4894   93.7718   14.7421 C.3     1  UNL1        0.1956
     24 C          69.0400   91.5768   16.8460 C.3     1  UNL1        0.1150
     25 N          68.4602   92.4002   15.7343 N.am    1  UNL1       -0.2744
     26 C          69.2715   92.6753   14.5030 C.3     1  UNL1        0.1150
     27 C          67.0691   92.9484   15.8539 C.2     1  UNL1        0.2490
     28 O          66.2578   92.6733   17.0851 O.2     1  UNL1       -0.2728
     29 C          63.3084   88.7633   12.1385 C.3     1  UNL1        0.1350
     30 C          62.0719   89.1658   11.3909 C.ar    1  UNL1        0.0132
     31 C          61.1382   90.1826   11.9776 C.ar    1  UNL1        0.0281
     32 C          59.9016   90.5850   11.2300 C.ar    1  UNL1        0.1399
     33 F          58.9679   91.6018   11.8168 F       1  UNL1       -0.2042
     34 C          59.5987   89.9706    9.8955 C.ar    1  UNL1        0.0305
     35 C          60.5324   88.9538    9.3087 C.ar    1  UNL1        0.0134
     36 C          61.7690   88.5513   10.0563 C.ar    1  UNL1        0.0557
     37 CL         62.7026   87.5346    9.4696 Cl      1  UNL1       -0.0825
@<TRIPOS>BOND
     1    24    25    1
     2    25    26    1
     3    25    27   am
     4    27    28    2
     5    27    23    1
     6    23     1    1
     7     1     2   ar
     8     2     3    2
     9     2     4   ar
    10     4     5    1
    11     4     6   ar
    12     6     7    2
    13     6     8   ar
    14     8     9   ar
    15     9    10   ar
    16    10    11   ar
    17    11    13    1
    18    13    14    1
    19    14    15    1
    20    15    16    1
    21    16    17    1
    22    17    18    1
    23    17    19    1
    24    17    20    1
    25    11    12   ar
    26    12    29    1
    27    29    30    1
    28    30    31   ar
    29    31    32   ar
    30    32    33    1
    31    32    34   ar
    32    34    35   ar
    33    35    36   ar
    34    36    37    1
    35     9     1   ar
    36    20    13    1
    37    36    30   ar
    38    12     8   ar
    39    19    21    1
    40    19    22    1
@<TRIPOS>MOLECULE
*****
 37 40 0 0 0
SMALL
GASTEIGER

@<TRIPOS>ATOM
      1 N          64.4625   91.8702   11.7313 N.ar    1  UNL1       -0.2706
      2 C          64.8983   92.1999   13.1283 C.ar    1  UNL1        0.3343
      3 O          65.6138   93.4887   13.4062 O.2     1  UNL1       -0.2462
      4 N          64.6187   91.2409   14.2472 N.ar    1  UNL1       -0.2455
      5 C          65.0545   91.5706   15.6441 C.3     1  UNL1        0.1383
      6 C          63.9032   89.9522   13.9693 C.ar    1  UNL1        0.2816
      7 O          63.6236   88.9932   15.0883 O.2     1  UNL1       -0.2652
      8 C          63.4674   89.6224   12.5724 C.ar    1  UNL1        0.1342
      9 C          63.7470   90.5814   11.4534 C.ar    1  UNL1        0.0876
     10 C          63.2012   89.9891   10.1880 C.ar    1  UNL1        0.0515
     11 C          62.5843   88.6640   10.5249 C.ar    1  UNL1        0.1142
     12 N          62.7488   88.4374   11.9986 N.ar    1  UNL1       -0.3068
     13 N          61.9196   87.7296    9.5580 N.pl3   1  UNL1       -0.2932
     14 C          62.6793   86.5630    8.9997 C.3     1  UNL1        0.0922
     15 C          62.0144   85.6285    8.0327 C.3     1  UNL1        0.0228
     16 C          60.5900   85.8607    7.6241 C.3     1  UNL1        0.0177
     17 C          59.8303   87.0274    8.1824 C.3     1  UNL1        0.0575
     18 C          58.7038   87.9850    8.4355 C.3     1  UNL1        0.0173
     19 N          58.7743   86.4256    7.3034 N.3     1  UNL1       -0.3219
     20 C          60.4951   87.9618    9.1494 C.3     1  UNL1        0.1062
     21 H          59.1489   85.5977    6.8401 H       1  UNL1        0.1188
     22 H          58.4871   87.1075    6.6013 H       1  UNL1        0.1188
     23 C          64.7421   92.8292   10.6123 C.3     1  UNL1        0.1956
     24 C          67.9651   94.8164    9.4232 C.3     1  UNL1        0.1150
     25 N          66.5494   94.5193    9.8201 N.am    1  UNL1       -0.2744
     26 C          65.5251   95.6151    9.8216 C.3     1  UNL1        0.1150
     27 C          66.1579   93.1263   10.2155 C.2     1  UNL1        0.2490
     28 O          67.1820   92.0304   10.2140 O.2     1  UNL1       -0.2728
     29 C          62.2774   87.2366   12.7639 C.3     1  UNL1        0.1350
     30 C          63.2153   86.0940   13.0188 C.ar    1  UNL1        0.0132
     31 C          64.3496   86.2564   13.9867 C.ar    1  UNL1        0.0281
     32 C          65.2875   85.1139   14.2415 C.ar    1  UNL1        0.1399
     33 F          66.4218   85.2762   15.2095 F       1  UNL1       -0.2042
     34 C          65.0910   83.8089   13.5284 C.ar    1  UNL1        0.0305
     35 C          63.9567   83.6465   12.5605 C.ar    1  UNL1        0.0134
     36 C          63.0188   84.7890   12.3056 C.ar    1  UNL1        0.0557
     37 CL         61.8845   84.6267   11.3377 Cl      1  UNL1       -0.0825
@<TRIPOS>BOND
     1    24    25    1
     2    25    26    1
     3    25    27   am
     4    27    28    2
     5    27    23    1
     6    23     1    1
     7     1     2   ar
     8     2     3    2
     9     2     4   ar
    10     4     5    1
    11     4     6   ar
    12     6     7    2
    13     6     8   ar
    14     8     9   ar
    15     9    10   ar
    16    10    11   ar
    17    11    13    1
    18    13    14    1
    19    14    15    1
    20    15    16    1
    21    16    17    1
    22    17    18    1
    23    17    19    1
    24    17    20    1
    25    11    12   ar
    26    12    29    1
    27    29    30    1
    28    30    31   ar
    29    31    32   ar
    30    32    33    1
    31    32    34   ar
    32    34    35   ar
    33    35    36   ar
    34    36    37    1
    35     9     1   ar
    36    20    13    1
    37    36    30   ar
    38    12     8   ar
    39    19    21    1
    40    19    22    1
@<TRIPOS>MOLECULE
*****
 37 40 0 0 0
SMALL
GASTEIGER

@<TRIPOS>ATOM
      1 N          63.2475   86.0150   12.7401 N.ar    1  UNL1       -0.2706
      2 C          62.4120   85.6973   11.5354 C.ar    1  UNL1        0.3343
      3 O          62.1207   84.2693   11.1801 O.2     1  UNL1       -0.2462
      4 N          61.8678   86.8074   10.6862 N.ar    1  UNL1       -0.2455
      5 C          61.0322   86.4898    9.4816 C.3     1  UNL1        0.1383
      6 C          62.1590   88.2353   11.0415 C.ar    1  UNL1        0.2816
      7 O          61.6148   89.3455   10.1922 O.2     1  UNL1       -0.2652
      8 C          62.9945   88.5531   12.2460 C.ar    1  UNL1        0.1342
      9 C          63.5388   87.4429   13.0953 C.ar    1  UNL1        0.0876
     10 C          64.3257   88.0583   14.2143 C.ar    1  UNL1        0.0515
     11 C          64.2677   89.5488   14.0565 C.ar    1  UNL1        0.1142
     12 N          63.4451   89.8546   12.8401 N.ar    1  UNL1       -0.3068
     13 N          64.9183   90.5567   14.9571 N.pl3   1  UNL1       -0.2932
     14 C          64.1297   91.1943   16.0624 C.3     1  UNL1        0.0922
     15 C          64.7804   92.2022   16.9629 C.3     1  UNL1        0.0228
     16 C          66.2195   92.5724   16.7582 C.3     1  UNL1        0.0177
     17 C          67.0080   91.9348   15.6530 C.3     1  UNL1        0.0575
     18 C          68.1616   91.6078   14.7518 C.3     1  UNL1        0.0173
     19 N          68.0592   92.8291   16.2405 N.3     1  UNL1       -0.3219
     20 C          66.3574   90.9269   14.7524 C.3     1  UNL1        0.1062
     21 H          67.6653   93.3458   17.0268 H       1  UNL1        0.1188
     22 H          68.3829   93.4856   15.5302 H       1  UNL1        0.1188
     23 C          63.7917   84.9047   13.5893 C.3     1  UNL1        0.1956
     24 C          62.0324   81.4537   14.4527 C.3     1  UNL1        0.1150
     25 N          62.9658   82.4540   13.8376 N.am    1  UNL1       -0.2744
     26 C          64.0066   82.0038   12.8558 C.3     1  UNL1        0.1150
     27 C          62.8583   83.9045   14.2044 C.2     1  UNL1        0.2490
     28 O          61.8175   84.3548   15.1862 O.2     1  UNL1       -0.2728
     29 C          63.1285   91.2220   12.3107 C.3     1  UNL1        0.1350
     30 C          64.2379   92.1333   11.8762 C.ar    1  UNL1        0.0132
     31 C          65.0634   92.8519   12.9020 C.ar    1  UNL1        0.0281
     32 C          66.1727   93.7633   12.4675 C.ar    1  UNL1        0.1399
     33 F          66.9982   94.4819   13.4932 F       1  UNL1       -0.2042
     34 C          66.4566   93.9560   11.0072 C.ar    1  UNL1        0.0305
     35 C          65.6312   93.2374    9.9815 C.ar    1  UNL1        0.0134
     36 C          64.5218   92.3260   10.4159 C.ar    1  UNL1        0.0557
     37 CL         63.6963   91.6074    9.3902 Cl      1  UNL1       -0.0825
@<TRIPOS>BOND
     1    24    25    1
     2    25    26    1
     3    25    27   am
     4    27    28    2
     5    27    23    1
     6    23     1    1
     7     1     2   ar
     8     2     3    2
     9     2     4   ar
    10     4     5    1
    11     4     6   ar
    12     6     7    2
    13     6     8   ar
    14     8     9   ar
    15     9    10   ar
    16    10    11   ar
    17    11    13    1
    18    13    14    1
    19    14    15    1
    20    15    16    1
    21    16    17    1
    22    17    18    1
    23    17    19    1
    24    17    20    1
    25    11    12   ar
    26    12    29    1
    27    29    30    1
    28    30    31   ar
    29    31    32   ar
    30    32    33    1
    31    32    34   ar
    32    34    35   ar
    33    35    36   ar
    34    36    37    1
    35     9     1   ar
    36    20    13    1
    37    36    30   ar
    38    12     8   ar
    39    19    21    1
    40    19    22    1
@<TRIPOS>MOLECULE
*****
 37 40 0 0 0
SMALL
GASTEIGER

@<TRIPOS>ATOM
      1 N          62.6500   87.9295   12.1663 N.ar    1  UNL1       -0.2706
      2 C          61.7365   87.9166   10.9765 C.ar    1  UNL1        0.3343
      3 O          60.9208   86.6954   10.6705 O.2     1  UNL1       -0.2462
      4 N          61.6385   89.1247   10.0930 N.ar    1  UNL1       -0.2455
      5 C          60.7250   89.1118    8.9033 C.3     1  UNL1        0.1383
      6 C          62.4541   90.3458   10.3990 C.ar    1  UNL1        0.2816
      7 O          62.3562   91.5540    9.5154 O.2     1  UNL1       -0.2652
      8 C          63.3677   90.3587   11.5887 C.ar    1  UNL1        0.1342
      9 C          63.4656   89.1506   12.4723 C.ar    1  UNL1        0.0876
     10 C          64.4454   89.4548   13.5666 C.ar    1  UNL1        0.0515
     11 C          64.9529   90.8510   13.3593 C.ar    1  UNL1        0.1142
     12 N          64.2869   91.4097   12.1369 N.ar    1  UNL1       -0.3068
     13 N          65.9513   91.5635   14.2228 N.pl3   1  UNL1       -0.2932
     14 C          65.5324   92.1186   15.5519 C.3     1  UNL1        0.0922
     15 C          66.5308   92.8311   16.4154 C.3     1  UNL1        0.0228
     16 C          67.9480   92.9885   15.9499 C.3     1  UNL1        0.0177
     17 C          68.3669   92.4334   14.6208 C.3     1  UNL1        0.0575
     18 C          69.2375   92.0835   13.4505 C.3     1  UNL1        0.0173
     19 N          69.6676   93.0243   15.0779 N.3     1  UNL1       -0.3219
     20 C          67.3685   91.7209   13.7573 C.3     1  UNL1        0.1062
     21 H          69.5427   93.4529   15.9950 H       1  UNL1        0.1188
     22 H          69.9725   93.7327   14.4103 H       1  UNL1        0.1188
     23 C          62.7479   86.7213   13.0498 C.3     1  UNL1        0.1956
     24 C          64.3350   83.0891   12.8528 C.3     1  UNL1        0.1150
     25 N          63.8301   84.3869   13.4102 N.am    1  UNL1       -0.2744
     26 C          63.9023   84.6483   14.8855 C.3     1  UNL1        0.1150
     27 C          63.2528   85.4235   12.4924 C.2     1  UNL1        0.2490
     28 O          63.1805   85.1622   11.0171 O.2     1  UNL1       -0.2728
     29 C          64.5023   92.7789   11.5634 C.3     1  UNL1        0.1350
     30 C          65.7525   93.0805   10.7915 C.ar    1  UNL1        0.0132
     31 C          66.6024   91.9588   10.2722 C.ar    1  UNL1        0.0281
     32 C          67.8526   92.2604    9.5003 C.ar    1  UNL1        0.1399
     33 F          68.7024   91.1387    8.9811 F       1  UNL1       -0.2042
     34 C          68.2531   93.6838    9.2476 C.ar    1  UNL1        0.0305
     35 C          67.4033   94.8054    9.7668 C.ar    1  UNL1        0.0134
     36 C          66.1530   94.5039   10.5388 C.ar    1  UNL1        0.0557
     37 CL         65.3032   95.6255   11.0580 Cl      1  UNL1       -0.0825
@<TRIPOS>BOND
     1    24    25    1
     2    25    26    1
     3    25    27   am
     4    27    28    2
     5    27    23    1
     6    23     1    1
     7     1     2   ar
     8     2     3    2
     9     2     4   ar
    10     4     5    1
    11     4     6   ar
    12     6     7    2
    13     6     8   ar
    14     8     9   ar
    15     9    10   ar
    16    10    11   ar
    17    11    13    1
    18    13    14    1
    19    14    15    1
    20    15    16    1
    21    16    17    1
    22    17    18    1
    23    17    19    1
    24    17    20    1
    25    11    12   ar
    26    12    29    1
    27    29    30    1
    28    30    31   ar
    29    31    32   ar
    30    32    33    1
    31    32    34   ar
    32    34    35   ar
    33    35    36   ar
    34    36    37    1
    35     9     1   ar
    36    20    13    1
    37    36    30   ar
    38    12     8   ar
    39    19    21    1
    40    19    22    1
@<TRIPOS>MOLECULE
*****
 37 40 0 0 0
SMALL
GASTEIGER

@<TRIPOS>ATOM
      1 N          64.7402   90.1719   13.5061 N.ar    1  UNL1       -0.2706
      2 C          64.4186   91.2867   12.5552 C.ar    1  UNL1        0.3343
      3 O          65.0778   92.6244   12.7174 O.2     1  UNL1       -0.2462
      4 N          63.4380   91.0638   11.4424 N.ar    1  UNL1       -0.2455
      5 C          63.1164   92.1786   10.4915 C.3     1  UNL1        0.1383
      6 C          62.7788   89.7262   11.2802 C.ar    1  UNL1        0.2816
      7 O          61.7981   89.5034   10.1673 O.2     1  UNL1       -0.2652
      8 C          63.1003   88.6115   12.2310 C.ar    1  UNL1        0.1342
      9 C          64.0810   88.8343   13.3439 C.ar    1  UNL1        0.0876
     10 C          64.1987   87.5567   14.1209 C.ar    1  UNL1        0.0515
     11 C          63.2907   86.5442   13.4882 C.ar    1  UNL1        0.1142
     12 N          62.6119   87.1961   12.3201 N.ar    1  UNL1       -0.3068
     13 N          63.0957   85.1283   13.9435 N.pl3   1  UNL1       -0.2932
     14 C          62.2091   84.8331   15.1168 C.3     1  UNL1        0.0922
     15 C          62.0142   83.4172   15.5721 C.3     1  UNL1        0.0228
     16 C          62.7059   82.2965   14.8541 C.3     1  UNL1        0.0177
     17 C          63.5925   82.5917   13.6807 C.3     1  UNL1        0.0575
     18 C          64.5237   82.3681   12.5263 C.3     1  UNL1        0.0173
     19 N          63.7210   81.0982   13.7351 N.3     1  UNL1       -0.3219
     20 C          63.7874   84.0076   13.2255 C.3     1  UNL1        0.1062
     21 H          63.1584   80.7363   14.5051 H       1  UNL1        0.1188
     22 H          64.6986   80.8461   13.8805 H       1  UNL1        0.1188
     23 C          65.7209   90.3949   14.6190 C.3     1  UNL1        0.1956
     24 C          67.5157   93.8659   15.3122 C.3     1  UNL1        0.1150
     25 N          67.2625   92.4781   14.8026 N.am    1  UNL1       -0.2744
     26 C          68.2978   91.7855   13.9668 C.3     1  UNL1        0.1150
     27 C          65.9741   91.7827   15.1287 C.2     1  UNL1        0.2490
     28 O          64.9387   92.4752   15.9644 O.2     1  UNL1       -0.2728
     29 C          61.6189   86.5465   11.4024 C.3     1  UNL1        0.1350
     30 C          62.0925   85.8193   10.1790 C.ar    1  UNL1        0.0132
     31 C          63.1439   84.7562   10.2983 C.ar    1  UNL1        0.0281
     32 C          63.6175   84.0290    9.0749 C.ar    1  UNL1        0.1399
     33 F          64.6689   82.9658    9.1942 F       1  UNL1       -0.2042
     34 C          63.0396   84.3649    7.7320 C.ar    1  UNL1        0.0305
     35 C          61.9882   85.4279    7.6126 C.ar    1  UNL1        0.0134
     36 C          61.5146   86.1552    8.8361 C.ar    1  UNL1        0.0557
     37 CL         60.4632   87.2183    8.7167 Cl      1  UNL1       -0.0825
@<TRIPOS>BOND
     1    24    25    1
     2    25    26    1
     3    25    27   am
     4    27    28    2
     5    27    23    1
     6    23     1    1
     7     1     2   ar
     8     2     3    2
     9     2     4   ar
    10     4     5    1
    11     4     6   ar
    12     6     7    2
    13     6     8   ar
    14     8     9   ar
    15     9    10   ar
    16    10    11   ar
    17    11    13    1
    18    13    14    1
    19    14    15    1
    20    15    16    1
    21    16    17    1
    22    17    18    1
    23    17    19    1
    24    17    20    1
    25    11    12   ar
    26    12    29    1
    27    29    30    1
    28    30    31   ar
    29    31    32   ar
    30    32    33    1
    31    32    34   ar
    32    34    35   ar
    33    35    36   ar
    34    36    37    1
    35     9     1   ar
    36    20    13    1
    37    36    30   ar
    38    12     8   ar
    39    19    21    1
    40    19    22    1
