@<TRIPOS>MOLECULE
*****
 40 45 0 0 0
SMALL
GASTEIGER

@<TRIPOS>ATOM
      1 C          59.2727   89.6071    6.4963 C.ar    1  UNL1        0.2203
      2 N          57.7842   89.7833    6.5535 N.ar    1  UNL1       -0.2121
      3 C          57.1130   90.7870    5.6635 C.ar    1  UNL1        0.1035
      4 C          57.9304   91.6145    4.7163 C.ar    1  UNL1        0.0445
      5 C          59.4189   91.4383    4.6591 C.ar    1  UNL1        0.1389
      6 N          60.0901   90.4346    5.5491 N.ar    1  UNL1       -0.2090
      7 C          60.4173   90.4681    9.1323 C.3     1  UNL1        0.0233
      8 C          60.5161   89.0338    8.7043 C.3     1  UNL1        0.0953
      9 C          61.1872   88.0301    9.5943 C.3     1  UNL1        0.1106
     10 N          61.2861   86.5959    9.1662 N.pl3   1  UNL1       -0.3024
     11 C          60.7138   86.1654    7.8482 C.3     1  UNL1        0.1124
     12 C          60.0427   87.1691    6.9583 C.3     1  UNL1        0.1150
     13 N          59.9439   88.6033    7.3863 N.pl3   1  UNL1       -0.2764
     14 C          61.9572   85.5921   10.0563 C.ar    1  UNL1        0.0758
     15 C          61.6812   85.5941   11.5307 C.ar    1  UNL1        0.0181
     16 C          62.3523   84.5904   12.4207 C.ar    1  UNL1        0.0198
     17 C          63.2995   83.5847   11.8363 C.ar    1  UNL1        0.1080
     18 C          63.5755   83.5826   10.3620 C.ar    1  UNL1        0.0492
     19 C          62.9043   84.5864    9.4719 C.ar    1  UNL1        0.1546
     20 F          63.1803   84.5844    7.9975 F       1  UNL1       -0.2028
     21 S          63.9706   82.5810   12.7264 S.O2    1  UNL1        0.0105
     22 C          64.6417   81.5773   13.6164 C.3     1  UNL1        0.1816
     23 O          63.0239   82.9317   13.8357 O.2     1  UNL1       -0.1686
     24 O          64.9173   82.2302   11.6170 O.2     1  UNL1       -0.1686
     25 C          60.2363   92.2658    3.7119 C.2     1  UNL1        0.2637
     26 O          59.8019   93.6594    3.3669 O.2     1  UNL1       -0.2685
     27 N          61.4880   91.6996    3.1096 N.am    1  UNL1       -0.3013
     28 H          61.7731   90.7849    3.3361 H       1  UNL1        0.1497
     29 C          62.3053   92.5272    2.1624 C.3     1  UNL1        0.0719
     30 C          61.8735   92.6779    0.7338 C.3     1  UNL1        0.0203
     31 C          63.1226   93.3546    1.2152 C.3     1  UNL1        0.0018
     32 C          63.9399   94.1821    0.2679 C.3     1  UNL1        0.0024
     33 C          64.3717   94.0314    1.6965 C.3     1  UNL1        0.0018
     34 C          63.5544   93.2039    2.6437 C.3     1  UNL1        0.0203
     35 C          63.2295   93.9598   -0.5393 C.3     1  UNL1        0.0285
     36 C          62.2590   93.6560   -1.6420 C.3     1  UNL1        0.0884
     37 O          61.8272   93.8067   -3.0706 O.3     1  UNL1       -0.3867
     38 C          63.5081   94.3328   -1.1607 C.3     1  UNL1        0.0269
     39 C          61.4417   92.8285   -0.6948 C.3     1  UNL1        0.0285
     40 H          62.4615   94.3687   -3.5425 H       1  UNL1        0.2102
@<TRIPOS>BOND
     1     8     7    1
     2     8     9    1
     3     9    10    1
     4    10    14    1
     5    14    15   ar
     6    15    16   ar
     7    16    17   ar
     8    17    21    1
     9    21    22    1
    10    21    23    2
    11    21    24    2
    12    17    18   ar
    13    18    19   ar
    14    19    20    1
    15    10    11    1
    16    11    12    1
    17    12    13    1
    18    13     1    1
    19     1     2   ar
    20     2     3   ar
    21     3     4   ar
    22     4     5   ar
    23     5    25    1
    24    25    26    2
    25    25    27   am
    26    27    29    1
    27    29    30    1
    28    30    31    1
    29    31    32    1
    30    32    33    1
    31    33    34    1
    32    34    35    1
    33    35    36    1
    34    36    37    1
    35    36    38    1
    36    36    39    1
    37     5     6   ar
    38    13     8    1
    39     6     1   ar
    40    19    14   ar
    41    34    29    1
    42    39    30    1
    43    38    32    1
    44    27    28    1
    45    37    40    1
@<TRIPOS>MOLECULE
*****
 40 45 0 0 0
SMALL
GASTEIGER

@<TRIPOS>ATOM
      1 C          64.2087   89.1642   14.6650 C.ar    1  UNL1        0.2203
      2 N          63.7070   89.5249   16.0318 N.ar    1  UNL1       -0.2121
      3 C          63.9111   90.9125   16.5636 C.ar    1  UNL1        0.1035
      4 C          64.6167   91.9395   15.7286 C.ar    1  UNL1        0.0445
      5 C          65.1183   91.5788   14.3617 C.ar    1  UNL1        0.1389
      6 N          64.9143   90.1912   13.8299 N.ar    1  UNL1       -0.2090
      7 C          62.8209   88.7538   12.0371 C.3     1  UNL1        0.0233
      8 C          63.3107   87.5714   12.8193 C.3     1  UNL1        0.0953
      9 C          63.1067   86.1837   12.2876 C.3     1  UNL1        0.1106
     10 N          63.5966   85.0012   13.0698 N.pl3   1  UNL1       -0.3024
     11 C          64.2904   85.2064   14.3837 C.3     1  UNL1        0.1124
     12 C          64.4944   86.5941   14.9154 C.3     1  UNL1        0.1150
     13 N          64.0046   87.7765   14.1332 N.pl3   1  UNL1       -0.2764
     14 C          63.3925   83.6135   12.5380 C.ar    1  UNL1        0.0758
     15 C          63.8571   83.2645   11.1552 C.ar    1  UNL1        0.0181
     16 C          63.6531   81.8768   10.6234 C.ar    1  UNL1        0.0198
     17 C          62.9844   80.8382   11.4744 C.ar    1  UNL1        0.1080
     18 C          62.5198   81.1873   12.8573 C.ar    1  UNL1        0.0492
     19 C          62.7239   82.5750   13.3891 C.ar    1  UNL1        0.1546
     20 F          62.2593   82.9241   14.7719 F       1  UNL1       -0.2028
     21 S          62.7804   79.4506   10.9426 S.O2    1  UNL1        0.0105
     22 C          62.5764   78.0630   10.4109 C.3     1  UNL1        0.1816
     23 O          63.0134   79.9509    9.5479 O.2     1  UNL1       -0.1686
     24 O          62.5474   78.9503   12.3374 O.2     1  UNL1       -0.1686
     25 C          65.8240   92.6059   13.5266 C.2     1  UNL1        0.2637
     26 O          67.2079   93.0510   13.8964 O.2     1  UNL1       -0.2685
     27 N          65.1458   93.1877   12.3219 N.am    1  UNL1       -0.3013
     28 H          64.2375   92.8955   12.0792 H       1  UNL1        0.1497
     29 C          65.8515   94.2147   11.4868 C.3     1  UNL1        0.0719
     30 C          66.5114   93.8116   10.2015 C.3     1  UNL1        0.0203
     31 C          66.5571   95.2417   10.6517 C.3     1  UNL1        0.0018
     32 C          67.2628   96.2686    9.8166 C.3     1  UNL1        0.0024
     33 C          66.6029   96.6717   11.1020 C.3     1  UNL1        0.0018
     34 C          65.8972   95.6448   11.9370 C.3     1  UNL1        0.0203
     35 C          67.5223   95.4938    9.0831 C.3     1  UNL1        0.0285
     36 C          67.8769   94.4355    8.0811 C.3     1  UNL1        0.0884
     37 O          68.5368   94.0323    6.7958 O.3     1  UNL1       -0.3867
     38 C          67.9226   95.8655    8.5313 C.3     1  UNL1        0.0269
     39 C          67.1713   93.4085    8.9161 C.3     1  UNL1        0.0285
     40 H          68.9435   94.8103    6.3832 H       1  UNL1        0.2102
@<TRIPOS>BOND
     1     8     7    1
     2     8     9    1
     3     9    10    1
     4    10    14    1
     5    14    15   ar
     6    15    16   ar
     7    16    17   ar
     8    17    21    1
     9    21    22    1
    10    21    23    2
    11    21    24    2
    12    17    18   ar
    13    18    19   ar
    14    19    20    1
    15    10    11    1
    16    11    12    1
    17    12    13    1
    18    13     1    1
    19     1     2   ar
    20     2     3   ar
    21     3     4   ar
    22     4     5   ar
    23     5    25    1
    24    25    26    2
    25    25    27   am
    26    27    29    1
    27    29    30    1
    28    30    31    1
    29    31    32    1
    30    32    33    1
    31    33    34    1
    32    34    35    1
    33    35    36    1
    34    36    37    1
    35    36    38    1
    36    36    39    1
    37     5     6   ar
    38    13     8    1
    39     6     1   ar
    40    19    14   ar
    41    34    29    1
    42    39    30    1
    43    38    32    1
    44    27    28    1
    45    37    40    1
@<TRIPOS>MOLECULE
*****
 40 45 0 0 0
SMALL
GASTEIGER

@<TRIPOS>ATOM
      1 C          59.8123   89.7114    6.7281 C.ar    1  UNL1        0.2203
      2 N          59.0035   88.4497    6.6665 N.ar    1  UNL1       -0.2121
      3 C          58.9142   87.5567    7.8684 C.ar    1  UNL1        0.1035
      4 C          59.6336   87.9255    9.1318 C.ar    1  UNL1        0.0445
      5 C          60.4424   89.1873    9.1934 C.ar    1  UNL1        0.1389
      6 N          60.5317   90.0803    7.9915 N.ar    1  UNL1       -0.2090
      7 C          57.3215   90.9080    5.5600 C.3     1  UNL1        0.0233
      8 C          58.6562   91.2027    4.9421 C.3     1  UNL1        0.0953
      9 C          58.7455   92.0957    3.7402 C.3     1  UNL1        0.1106
     10 N          60.0802   92.3904    3.1223 N.pl3   1  UNL1       -0.3024
     11 C          61.3255   91.7921    3.7063 C.3     1  UNL1        0.1124
     12 C          61.2362   90.8992    4.9082 C.3     1  UNL1        0.1150
     13 N          59.9015   90.6045    5.5261 N.pl3   1  UNL1       -0.2764
     14 C          60.1695   93.2834    1.9204 C.ar    1  UNL1        0.0758
     15 C          60.2301   94.7720    2.0948 C.ar    1  UNL1        0.0181
     16 C          60.3194   95.6650    0.8930 C.ar    1  UNL1        0.0198
     17 C          60.3480   95.0694   -0.4835 C.ar    1  UNL1        0.1080
     18 C          60.2874   93.5808   -0.6580 C.ar    1  UNL1        0.0492
     19 C          60.1981   92.6878    0.5440 C.ar    1  UNL1        0.1546
     20 F          60.1374   91.1992    0.3695 F       1  UNL1       -0.2028
     21 S          60.4373   95.9624   -1.6853 S.O2    1  UNL1        0.0105
     22 C          60.5266   96.8554   -2.8872 C.3     1  UNL1        0.1816
     23 O          59.0157   96.3910   -1.4725 O.2     1  UNL1       -0.1686
     24 O          61.8589   95.5337   -1.8982 O.2     1  UNL1       -0.1686
     25 C          61.1619   89.5560   10.4569 C.2     1  UNL1        0.2637
     26 O          60.3836   89.9874   11.6645 O.2     1  UNL1       -0.2685
     27 N          62.6595   89.4934   10.5128 N.am    1  UNL1       -0.3013
     28 H          63.1702   89.2103    9.7202 H       1  UNL1        0.1497
     29 C          63.3790   89.8622   11.7764 C.3     1  UNL1        0.0719
     30 C          64.2299   91.0967   11.8219 C.3     1  UNL1        0.0203
     31 C          64.0984   90.2310   13.0398 C.3     1  UNL1        0.0018
     32 C          64.8179   90.5998   14.3032 C.3     1  UNL1        0.0024
     33 C          63.9669   89.3654   14.2577 C.3     1  UNL1        0.0018
     34 C          63.2475   88.9966   12.9943 C.3     1  UNL1        0.0203
     35 C          65.2331   91.4874   13.8078 C.3     1  UNL1        0.0285
     36 C          65.8003   92.6999   13.1309 C.3     1  UNL1        0.0884
     37 O          66.6512   93.9343   13.1764 O.3     1  UNL1       -0.3867
     38 C          65.6688   91.8343   14.3488 C.3     1  UNL1        0.0269
     39 C          65.0808   92.3311   11.8674 C.3     1  UNL1        0.0285
     40 H          67.0416   94.0255   14.0597 H       1  UNL1        0.2102
@<TRIPOS>BOND
     1     8     7    1
     2     8     9    1
     3     9    10    1
     4    10    14    1
     5    14    15   ar
     6    15    16   ar
     7    16    17   ar
     8    17    21    1
     9    21    22    1
    10    21    23    2
    11    21    24    2
    12    17    18   ar
    13    18    19   ar
    14    19    20    1
    15    10    11    1
    16    11    12    1
    17    12    13    1
    18    13     1    1
    19     1     2   ar
    20     2     3   ar
    21     3     4   ar
    22     4     5   ar
    23     5    25    1
    24    25    26    2
    25    25    27   am
    26    27    29    1
    27    29    30    1
    28    30    31    1
    29    31    32    1
    30    32    33    1
    31    33    34    1
    32    34    35    1
    33    35    36    1
    34    36    37    1
    35    36    38    1
    36    36    39    1
    37     5     6   ar
    38    13     8    1
    39     6     1   ar
    40    19    14   ar
    41    34    29    1
    42    39    30    1
    43    38    32    1
    44    27    28    1
    45    37    40    1
@<TRIPOS>MOLECULE
*****
 40 45 0 0 0
SMALL
GASTEIGER

@<TRIPOS>ATOM
      1 C          59.3803   91.7464    3.9839 C.ar    1  UNL1        0.2203
      2 N          57.9046   92.0150    3.9782 N.ar    1  UNL1       -0.2121
      3 C          57.0220   91.3765    5.0094 C.ar    1  UNL1        0.1035
      4 C          57.6152   90.4693    6.0462 C.ar    1  UNL1        0.0445
      5 C          59.0910   90.2007    6.0520 C.ar    1  UNL1        0.1389
      6 N          59.9735   90.8392    5.0208 N.ar    1  UNL1       -0.2090
      7 C          62.3253   91.1745    3.9681 C.3     1  UNL1        0.0233
      8 C          61.7353   92.0990    2.9448 C.3     1  UNL1        0.0953
      9 C          62.6178   92.7376    1.9136 C.3     1  UNL1        0.1106
     10 N          62.0278   93.6621    0.8903 N.pl3   1  UNL1       -0.3024
     11 C          60.5554   93.9480    0.8981 C.3     1  UNL1        0.1124
     12 C          59.6729   93.3095    1.9293 C.3     1  UNL1        0.1150
     13 N          60.2629   92.3850    2.9527 N.pl3   1  UNL1       -0.2764
     14 C          62.9104   94.3007   -0.1410 C.ar    1  UNL1        0.0758
     15 C          62.6648   94.0474   -1.5989 C.ar    1  UNL1        0.0181
     16 C          63.5472   94.6859   -2.6301 C.ar    1  UNL1        0.0198
     17 C          64.6754   95.5778   -2.2035 C.ar    1  UNL1        0.1080
     18 C          64.9210   95.8310   -0.7455 C.ar    1  UNL1        0.0492
     19 C          64.0384   95.1925    0.2857 C.ar    1  UNL1        0.1546
     20 F          64.2840   95.4457    1.7436 F       1  UNL1       -0.2028
     21 S          65.5579   96.2163   -3.2347 S.O2    1  UNL1        0.0105
     22 C          66.4404   96.8548   -4.2659 C.3     1  UNL1        0.1816
     23 O          66.4531   96.7338   -2.1481 O.2     1  UNL1       -0.1686
     24 O          64.6627   95.6988   -4.3212 O.2     1  UNL1       -0.1686
     25 C          59.6841   89.2935    7.0889 C.2     1  UNL1        0.2637
     26 O          59.4554   87.8132    7.0096 O.2     1  UNL1       -0.2685
     27 N          60.5061   89.8667    8.2051 N.am    1  UNL1       -0.3013
     28 H          60.6562   90.8383    8.2571 H       1  UNL1        0.1497
     29 C          61.0992   88.9595    9.2421 C.3     1  UNL1        0.0719
     30 C          61.9327   89.5313   10.3504 C.3     1  UNL1        0.0203
     31 C          61.6924   88.0524   10.2790 C.3     1  UNL1        0.0018
     32 C          62.2856   87.1453   11.3159 C.3     1  UNL1        0.0024
     33 C          61.4521   86.5735   10.2076 C.3     1  UNL1        0.0018
     34 C          60.8590   87.4806    9.1707 C.3     1  UNL1        0.0203
     35 C          62.7394   88.0120   11.8146 C.3     1  UNL1        0.0285
     36 C          63.3593   89.1959   12.4957 C.3     1  UNL1        0.0884
     37 O          64.1928   89.7677   13.6040 O.3     1  UNL1       -0.3867
     38 C          63.1190   87.7171   12.4243 C.3     1  UNL1        0.0269
     39 C          62.7662   90.1030   11.4588 C.3     1  UNL1        0.0285
     40 H          64.4967   89.0511   14.1828 H       1  UNL1        0.2102
@<TRIPOS>BOND
     1     8     7    1
     2     8     9    1
     3     9    10    1
     4    10    14    1
     5    14    15   ar
     6    15    16   ar
     7    16    17   ar
     8    17    21    1
     9    21    22    1
    10    21    23    2
    11    21    24    2
    12    17    18   ar
    13    18    19   ar
    14    19    20    1
    15    10    11    1
    16    11    12    1
    17    12    13    1
    18    13     1    1
    19     1     2   ar
    20     2     3   ar
    21     3     4   ar
    22     4     5   ar
    23     5    25    1
    24    25    26    2
    25    25    27   am
    26    27    29    1
    27    29    30    1
    28    30    31    1
    29    31    32    1
    30    32    33    1
    31    33    34    1
    32    34    35    1
    33    35    36    1
    34    36    37    1
    35    36    38    1
    36    36    39    1
    37     5     6   ar
    38    13     8    1
    39     6     1   ar
    40    19    14   ar
    41    34    29    1
    42    39    30    1
    43    38    32    1
    44    27    28    1
    45    37    40    1
@<TRIPOS>MOLECULE
*****
 40 45 0 0 0
SMALL
GASTEIGER

@<TRIPOS>ATOM
      1 C          59.6860   89.6811    6.5470 C.ar    1  UNL1        0.2203
      2 N          58.7144   88.5450    6.4247 N.ar    1  UNL1       -0.2121
      3 C          58.4569   87.6486    7.5995 C.ar    1  UNL1        0.1035
      4 C          59.1710   87.8883    8.8965 C.ar    1  UNL1        0.0445
      5 C          60.1427   89.0245    9.0188 C.ar    1  UNL1        0.1389
      6 N          60.4002   89.9209    7.8441 N.ar    1  UNL1       -0.2090
      7 C          57.4284   91.2261    5.3157 C.3     1  UNL1        0.0233
      8 C          58.8147   91.3500    4.7565 C.3     1  UNL1        0.0953
      9 C          59.0722   92.2464    3.5817 C.3     1  UNL1        0.1106
     10 N          60.4586   92.3703    3.0226 N.pl3   1  UNL1       -0.3024
     11 C          61.5874   91.5978    3.6382 C.3     1  UNL1        0.1124
     12 C          61.3299   90.7015    4.8130 C.3     1  UNL1        0.1150
     13 N          59.9435   90.5776    5.3722 N.pl3   1  UNL1       -0.2764
     14 C          60.7161   93.2667    1.8477 C.ar    1  UNL1        0.0758
     15 C          60.4191   94.7338    1.9445 C.ar    1  UNL1        0.0181
     16 C          60.6765   95.6302    0.7697 C.ar    1  UNL1        0.0198
     17 C          61.2310   95.0595   -0.5019 C.ar    1  UNL1        0.1080
     18 C          61.5280   93.5924   -0.5987 C.ar    1  UNL1        0.0492
     19 C          61.2705   92.6960    0.5762 C.ar    1  UNL1        0.1546
     20 F          61.5675   91.2289    0.4794 F       1  UNL1       -0.2028
     21 S          61.4885   95.9559   -1.6767 S.O2    1  UNL1        0.0105
     22 C          61.7459   96.8524   -2.8514 C.3     1  UNL1        0.1816
     23 O          60.0118   96.0666   -1.9159 O.2     1  UNL1       -0.1686
     24 O          62.9651   95.8453   -1.4375 O.2     1  UNL1       -0.1686
     25 C          60.8569   89.2643   10.3160 C.2     1  UNL1        0.2637
     26 O          60.1736   90.0141   11.4209 O.2     1  UNL1       -0.2685
     27 N          62.2543   88.7542   10.5082 N.am    1  UNL1       -0.3013
     28 H          62.7028   88.2620    9.7830 H       1  UNL1        0.1497
     29 C          62.9685   88.9940   11.8054 C.3     1  UNL1        0.0719
     30 C          63.3253   87.8364   12.6901 C.3     1  UNL1        0.0203
     31 C          63.6826   89.2337   13.1025 C.3     1  UNL1        0.0018
     32 C          64.3968   89.4733   14.3996 C.3     1  UNL1        0.0024
     33 C          64.0400   90.6309   13.5148 C.3     1  UNL1        0.0018
     34 C          63.3258   90.3912   12.2177 C.3     1  UNL1        0.0203
     35 C          64.3965   88.3936   14.5993 C.3     1  UNL1        0.0285
     36 C          64.3962   86.9186   14.8720 C.3     1  UNL1        0.0884
     37 O          64.7530   85.7611   15.7568 O.3     1  UNL1       -0.3867
     38 C          64.7536   88.3158   15.2843 C.3     1  UNL1        0.0269
     39 C          63.6821   86.6789   13.5749 C.3     1  UNL1        0.0285
     40 H          65.2071   86.0878   16.5493 H       1  UNL1        0.2102
@<TRIPOS>BOND
     1     8     7    1
     2     8     9    1
     3     9    10    1
     4    10    14    1
     5    14    15   ar
     6    15    16   ar
     7    16    17   ar
     8    17    21    1
     9    21    22    1
    10    21    23    2
    11    21    24    2
    12    17    18   ar
    13    18    19   ar
    14    19    20    1
    15    10    11    1
    16    11    12    1
    17    12    13    1
    18    13     1    1
    19     1     2   ar
    20     2     3   ar
    21     3     4   ar
    22     4     5   ar
    23     5    25    1
    24    25    26    2
    25    25    27   am
    26    27    29    1
    27    29    30    1
    28    30    31    1
    29    31    32    1
    30    32    33    1
    31    33    34    1
    32    34    35    1
    33    35    36    1
    34    36    37    1
    35    36    38    1
    36    36    39    1
    37     5     6   ar
    38    13     8    1
    39     6     1   ar
    40    19    14   ar
    41    34    29    1
    42    39    30    1
    43    38    32    1
    44    27    28    1
    45    37    40    1
@<TRIPOS>MOLECULE
*****
 40 45 0 0 0
SMALL
GASTEIGER

@<TRIPOS>ATOM
      1 C          59.8789   90.0560    6.4367 C.ar    1  UNL1        0.2203
      2 N          59.0634   88.7971    6.4294 N.ar    1  UNL1       -0.2121
      3 C          58.9842   87.9476    7.6631 C.ar    1  UNL1        0.1035
      4 C          59.7205   88.3571    8.9041 C.ar    1  UNL1        0.0445
      5 C          60.5360   89.6160    8.9115 C.ar    1  UNL1        0.1389
      6 N          60.6152   90.4655    7.6777 N.ar    1  UNL1       -0.2090
      7 C          57.3819   91.2360    5.2651 C.3     1  UNL1        0.0233
      8 C          58.7096   91.4955    4.6172 C.3     1  UNL1        0.0953
      9 C          58.7889   92.3449    3.3834 C.3     1  UNL1        0.1106
     10 N          60.1166   92.6044    2.7355 N.pl3   1  UNL1       -0.3024
     11 C          61.3651   92.0144    3.3213 C.3     1  UNL1        0.1124
     12 C          61.2858   91.1650    4.5550 C.3     1  UNL1        0.1150
     13 N          59.9581   90.9055    5.2029 N.pl3   1  UNL1       -0.2764
     14 C          60.1958   93.4539    1.5017 C.ar    1  UNL1        0.0758
     15 C          60.2051   94.9492    1.6200 C.ar    1  UNL1        0.0181
     16 C          60.2843   95.7987    0.3863 C.ar    1  UNL1        0.0198
     17 C          60.3542   95.1529   -0.9658 C.ar    1  UNL1        0.1080
     18 C          60.3449   93.6576   -1.0841 C.ar    1  UNL1        0.0492
     19 C          60.2657   92.8081    0.1497 C.ar    1  UNL1        0.1546
     20 F          60.2565   91.3128    0.0314 F       1  UNL1       -0.2028
     21 S          60.4334   96.0023   -2.1995 S.O2    1  UNL1        0.0105
     22 C          60.5126   96.8518   -3.4332 C.3     1  UNL1        0.1816
     23 O          58.9438   95.9173   -2.3537 O.2     1  UNL1       -0.1686
     24 O          61.9230   96.0874   -2.0453 O.2     1  UNL1       -0.1686
     25 C          61.2723   90.0254   10.1526 C.2     1  UNL1        0.2637
     26 O          60.5470   90.1045   11.4632 O.2     1  UNL1       -0.2685
     27 N          62.7338   90.3558   10.0830 N.am    1  UNL1       -0.3013
     28 H          63.2098   90.3038    9.2228 H       1  UNL1        0.1497
     29 C          63.4701   90.7652   11.3241 C.3     1  UNL1        0.0719
     30 C          63.2017   90.0622   12.6217 C.3     1  UNL1        0.0203
     31 C          64.2063   91.1746   12.5652 C.3     1  UNL1        0.0018
     32 C          64.9426   91.5839   13.8063 C.3     1  UNL1        0.0024
     33 C          65.2110   92.2869   12.5087 C.3     1  UNL1        0.0018
     34 C          64.4748   91.8775   11.2676 C.3     1  UNL1        0.0203
     35 C          64.4045   90.8167   14.3786 C.3     1  UNL1        0.0285
     36 C          63.6695   89.7686   15.1604 C.3     1  UNL1        0.0884
     37 O          63.4011   89.0656   16.4580 O.3     1  UNL1       -0.3867
     38 C          64.6742   90.8809   15.1039 C.3     1  UNL1        0.0269
     39 C          62.9333   89.3592   13.9193 C.3     1  UNL1        0.0285
     40 H          63.9560   89.4497   17.1547 H       1  UNL1        0.2102
@<TRIPOS>BOND
     1     8     7    1
     2     8     9    1
     3     9    10    1
     4    10    14    1
     5    14    15   ar
     6    15    16   ar
     7    16    17   ar
     8    17    21    1
     9    21    22    1
    10    21    23    2
    11    21    24    2
    12    17    18   ar
    13    18    19   ar
    14    19    20    1
    15    10    11    1
    16    11    12    1
    17    12    13    1
    18    13     1    1
    19     1     2   ar
    20     2     3   ar
    21     3     4   ar
    22     4     5   ar
    23     5    25    1
    24    25    26    2
    25    25    27   am
    26    27    29    1
    27    29    30    1
    28    30    31    1
    29    31    32    1
    30    32    33    1
    31    33    34    1
    32    34    35    1
    33    35    36    1
    34    36    37    1
    35    36    38    1
    36    36    39    1
    37     5     6   ar
    38    13     8    1
    39     6     1   ar
    40    19    14   ar
    41    34    29    1
    42    39    30    1
    43    38    32    1
    44    27    28    1
    45    37    40    1
@<TRIPOS>MOLECULE
*****
 40 45 0 0 0
SMALL
GASTEIGER

@<TRIPOS>ATOM
      1 C          63.7592   88.4213   13.9714 C.ar    1  UNL1        0.2203
      2 N          63.4782   88.7655   15.4041 N.ar    1  UNL1       -0.2121
      3 C          63.6083   90.1840   15.8741 C.ar    1  UNL1        0.1035
      4 C          64.0195   91.2583   14.9114 C.ar    1  UNL1        0.0445
      5 C          64.3006   90.9141   13.4788 C.ar    1  UNL1        0.1389
      6 N          64.1705   89.4956   13.0088 N.ar    1  UNL1       -0.2090
      7 C          65.2082   86.2248   15.4123 C.3     1  UNL1        0.0233
      8 C          64.3535   85.9045   14.2219 C.3     1  UNL1        0.0953
      9 C          64.2233   84.4860   13.7519 C.3     1  UNL1        0.1106
     10 N          63.3687   84.1658   12.5615 N.pl3   1  UNL1       -0.3024
     11 C          62.6442   85.2640   11.8411 C.3     1  UNL1        0.1124
     12 C          62.7744   86.6825   12.3111 C.3     1  UNL1        0.1150
     13 N          63.6291   87.0027   13.5015 N.pl3   1  UNL1       -0.2764
     14 C          63.2385   82.7472   12.0916 C.ar    1  UNL1        0.0758
     15 C          62.7580   81.6854   13.0358 C.ar    1  UNL1        0.0181
     16 C          62.6278   80.2669   12.5660 C.ar    1  UNL1        0.0198
     17 C          62.9782   79.9101   11.1517 C.ar    1  UNL1        0.1080
     18 C          63.4587   80.9719   10.2074 C.ar    1  UNL1        0.0492
     19 C          63.5889   82.3905   10.6774 C.ar    1  UNL1        0.1546
     20 F          64.0694   83.4523    9.7331 F       1  UNL1       -0.2028
     21 S          62.8480   78.4916   10.6818 S.O2    1  UNL1        0.0105
     22 C          62.7178   77.0731   10.2119 C.3     1  UNL1        0.1816
     23 O          62.6004   78.0470   12.0928 O.2     1  UNL1       -0.1686
     24 O          63.0956   78.9363    9.2708 O.2     1  UNL1       -0.1686
     25 C          64.7118   91.9884   12.5161 C.2     1  UNL1        0.2637
     26 O          64.0487   92.0870   11.1742 O.2     1  UNL1       -0.2685
     27 N          65.7861   92.9641   12.8952 N.am    1  UNL1       -0.3013
     28 H          66.2214   92.8994   13.7759 H       1  UNL1        0.1497
     29 C          66.1974   94.0385   11.9325 C.3     1  UNL1        0.0719
     30 C          66.7805   93.6691   10.6008 C.3     1  UNL1        0.0203
     31 C          66.6086   95.1128   10.9699 C.3     1  UNL1        0.0018
     32 C          67.0198   96.1870   10.0072 C.3     1  UNL1        0.0024
     33 C          66.4368   96.5564   11.3389 C.3     1  UNL1        0.0018
     34 C          66.0255   95.4821   12.3016 C.3     1  UNL1        0.0203
     35 C          67.3389   95.4208    9.2883 C.3     1  UNL1        0.0285
     36 C          67.7748   94.3740    8.3063 C.3     1  UNL1        0.0884
     37 O          68.3578   94.0046    6.9746 O.3     1  UNL1       -0.3867
     38 C          67.6029   95.8176    8.6754 C.3     1  UNL1        0.0269
     39 C          67.3635   93.2997    9.2690 C.3     1  UNL1        0.0285
     40 H          68.5678   94.8113    6.4786 H       1  UNL1        0.2102
@<TRIPOS>BOND
     1     8     7    1
     2     8     9    1
     3     9    10    1
     4    10    14    1
     5    14    15   ar
     6    15    16   ar
     7    16    17   ar
     8    17    21    1
     9    21    22    1
    10    21    23    2
    11    21    24    2
    12    17    18   ar
    13    18    19   ar
    14    19    20    1
    15    10    11    1
    16    11    12    1
    17    12    13    1
    18    13     1    1
    19     1     2   ar
    20     2     3   ar
    21     3     4   ar
    22     4     5   ar
    23     5    25    1
    24    25    26    2
    25    25    27   am
    26    27    29    1
    27    29    30    1
    28    30    31    1
    29    31    32    1
    30    32    33    1
    31    33    34    1
    32    34    35    1
    33    35    36    1
    34    36    37    1
    35    36    38    1
    36    36    39    1
    37     5     6   ar
    38    13     8    1
    39     6     1   ar
    40    19    14   ar
    41    34    29    1
    42    39    30    1
    43    38    32    1
    44    27    28    1
    45    37    40    1
@<TRIPOS>MOLECULE
*****
 40 45 0 0 0
SMALL
GASTEIGER

@<TRIPOS>ATOM
      1 C          63.6461   87.9883   14.3786 C.ar    1  UNL1        0.2203
      2 N          63.3702   88.2607   15.8276 N.ar    1  UNL1       -0.2121
      3 C          63.4790   89.6580   16.3620 C.ar    1  UNL1        0.1035
      4 C          63.8637   90.7829   15.4474 C.ar    1  UNL1        0.0445
      5 C          64.1396   90.5105   13.9983 C.ar    1  UNL1        0.1389
      6 N          64.0308   89.1131   13.4639 N.ar    1  UNL1       -0.2090
      7 C          62.2394   87.4822   11.7776 C.3     1  UNL1        0.0233
      8 C          62.8339   86.3379   12.5437 C.3     1  UNL1        0.0953
      9 C          62.7251   84.9405   12.0094 C.3     1  UNL1        0.1106
     10 N          63.3197   83.7962   12.7755 N.pl3   1  UNL1       -0.3024
     11 C          64.0230   84.0492   14.0760 C.3     1  UNL1        0.1124
     12 C          64.1318   85.4465   14.6103 C.3     1  UNL1        0.1150
     13 N          63.5373   86.5909   13.8442 N.pl3   1  UNL1       -0.2764
     14 C          63.2109   82.3988   12.2412 C.ar    1  UNL1        0.0758
     15 C          63.4584   82.1308   10.7862 C.ar    1  UNL1        0.0181
     16 C          63.3496   80.7335   10.2518 C.ar    1  UNL1        0.0198
     17 C          62.9932   79.6040   11.1724 C.ar    1  UNL1        0.1080
     18 C          62.7457   79.8720   12.6273 C.ar    1  UNL1        0.0492
     19 C          62.8545   81.2694   13.1617 C.ar    1  UNL1        0.1546
     20 F          62.6069   81.5373   14.6167 F       1  UNL1       -0.2028
     21 S          62.8844   78.2067   10.6380 S.O2    1  UNL1        0.0105
     22 C          62.7756   76.8094   10.1036 C.3     1  UNL1        0.1816
     23 O          62.6089   77.6988   12.0222 O.2     1  UNL1       -0.1686
     24 O          63.1600   78.7147    9.2538 O.2     1  UNL1       -0.1686
     25 C          64.5244   91.6354   13.0837 C.2     1  UNL1        0.2637
     26 O          63.4977   92.2525   12.1809 O.2     1  UNL1       -0.2685
     27 N          65.9357   92.1432   13.0720 N.am    1  UNL1       -0.3013
     28 H          66.6096   91.7382   13.6645 H       1  UNL1        0.1497
     29 C          66.3205   93.2682   12.1573 C.3     1  UNL1        0.0719
     30 C          66.9581   92.9728   10.8322 C.3     1  UNL1        0.0203
     31 C          66.7052   94.3931   11.2427 C.3     1  UNL1        0.0018
     32 C          67.0900   95.5180   10.3281 C.3     1  UNL1        0.0024
     33 C          66.4523   95.8135   11.6533 C.3     1  UNL1        0.0018
     34 C          66.0676   94.6886   12.5679 C.3     1  UNL1        0.0203
     35 C          67.4664   94.7928    9.5945 C.3     1  UNL1        0.0285
     36 C          67.9805   93.8022    8.5924 C.3     1  UNL1        0.0884
     37 O          68.6182   93.5067    7.2672 O.3     1  UNL1       -0.3867
     38 C          67.7276   95.2225    9.0029 C.3     1  UNL1        0.0269
     39 C          67.5958   92.6773    9.5070 C.3     1  UNL1        0.0285
     40 H          68.8020   94.3390    6.8041 H       1  UNL1        0.2102
@<TRIPOS>BOND
     1     8     7    1
     2     8     9    1
     3     9    10    1
     4    10    14    1
     5    14    15   ar
     6    15    16   ar
     7    16    17   ar
     8    17    21    1
     9    21    22    1
    10    21    23    2
    11    21    24    2
    12    17    18   ar
    13    18    19   ar
    14    19    20    1
    15    10    11    1
    16    11    12    1
    17    12    13    1
    18    13     1    1
    19     1     2   ar
    20     2     3   ar
    21     3     4   ar
    22     4     5   ar
    23     5    25    1
    24    25    26    2
    25    25    27   am
    26    27    29    1
    27    29    30    1
    28    30    31    1
    29    31    32    1
    30    32    33    1
    31    33    34    1
    32    34    35    1
    33    35    36    1
    34    36    37    1
    35    36    38    1
    36    36    39    1
    37     5     6   ar
    38    13     8    1
    39     6     1   ar
    40    19    14   ar
    41    34    29    1
    42    39    30    1
    43    38    32    1
    44    27    28    1
    45    37    40    1
@<TRIPOS>MOLECULE
*****
 40 45 0 0 0
SMALL
GASTEIGER

@<TRIPOS>ATOM
      1 C          60.4196   90.4281    5.7490 C.ar    1  UNL1        0.2203
      2 N          59.1509   89.6457    5.5814 N.ar    1  UNL1       -0.2121
      3 C          58.5775   88.8889    6.7426 C.ar    1  UNL1        0.1035
      4 C          59.2728   88.9146    8.0714 C.ar    1  UNL1        0.0445
      5 C          60.5415   89.6970    8.2390 C.ar    1  UNL1        0.1389
      6 N          61.1149   90.4538    7.0778 N.ar    1  UNL1       -0.2090
      7 C          58.8481   92.6471    4.4815 C.3     1  UNL1        0.0233
      8 C          60.2072   92.2944    3.9540 C.3     1  UNL1        0.0953
      9 C          60.7806   93.0511    2.7928 C.3     1  UNL1        0.1106
     10 N          62.1398   92.6984    2.2653 N.pl3   1  UNL1       -0.3024
     11 C          62.9256   91.5890    2.8990 C.3     1  UNL1        0.1124
     12 C          62.3522   90.8322    4.0602 C.3     1  UNL1        0.1150
     13 N          60.9930   91.1849    4.5877 N.pl3   1  UNL1       -0.2764
     14 C          62.7132   93.4552    1.1040 C.ar    1  UNL1        0.0758
     15 C          63.7252   94.5370    1.3399 C.ar    1  UNL1        0.0181
     16 C          64.2986   95.2937    0.1787 C.ar    1  UNL1        0.0198
     17 C          63.8599   94.9689   -1.2185 C.ar    1  UNL1        0.1080
     18 C          62.8479   93.8871   -1.4545 C.ar    1  UNL1        0.0492
     19 C          62.2745   93.1303   -0.2932 C.ar    1  UNL1        0.1546
     20 F          61.2625   92.0486   -0.5291 F       1  UNL1       -0.2028
     21 S          64.4333   95.7256   -2.3798 S.O2    1  UNL1        0.0105
     22 C          65.0067   96.4824   -3.5410 C.3     1  UNL1        0.1816
     23 O          65.6056   96.1314   -1.5365 O.2     1  UNL1       -0.1686
     24 O          63.2611   95.3199   -3.2230 O.2     1  UNL1       -0.1686
     25 C          61.2369   89.7227    9.5680 C.2     1  UNL1        0.2637
     26 O          60.7813   88.8133   10.6704 O.2     1  UNL1       -0.2685
     27 N          62.3877   90.6577    9.7943 N.am    1  UNL1       -0.3013
     28 H          62.6867   91.2545    9.0707 H       1  UNL1        0.1497
     29 C          63.0830   90.6833   11.1233 C.3     1  UNL1        0.0719
     30 C          64.1935   91.6611   11.3699 C.3     1  UNL1        0.0203
     31 C          63.7784   90.7090   12.4521 C.3     1  UNL1        0.0018
     32 C          64.4737   90.7347   13.7809 C.3     1  UNL1        0.0024
     33 C          63.3632   89.7570   13.5343 C.3     1  UNL1        0.0018
     34 C          62.6679   89.7313   12.2054 C.3     1  UNL1        0.0203
     35 C          65.1185   91.5504   13.4278 C.3     1  UNL1        0.0285
     36 C          65.9993   92.6646   12.9454 C.3     1  UNL1        0.0884
     37 O          67.1098   93.6423   13.1920 O.3     1  UNL1       -0.3867
     38 C          65.5841   91.7125   14.0275 C.3     1  UNL1        0.0269
     39 C          65.3040   92.6389   11.6165 C.3     1  UNL1        0.0285
     40 H          67.4478   93.5270   14.0939 H       1  UNL1        0.2102
@<TRIPOS>BOND
     1     8     7    1
     2     8     9    1
     3     9    10    1
     4    10    14    1
     5    14    15   ar
     6    15    16   ar
     7    16    17   ar
     8    17    21    1
     9    21    22    1
    10    21    23    2
    11    21    24    2
    12    17    18   ar
    13    18    19   ar
    14    19    20    1
    15    10    11    1
    16    11    12    1
    17    12    13    1
    18    13     1    1
    19     1     2   ar
    20     2     3   ar
    21     3     4   ar
    22     4     5   ar
    23     5    25    1
    24    25    26    2
    25    25    27   am
    26    27    29    1
    27    29    30    1
    28    30    31    1
    29    31    32    1
    30    32    33    1
    31    33    34    1
    32    34    35    1
    33    35    36    1
    34    36    37    1
    35    36    38    1
    36    36    39    1
    37     5     6   ar
    38    13     8    1
    39     6     1   ar
    40    19    14   ar
    41    34    29    1
    42    39    30    1
    43    38    32    1
    44    27    28    1
    45    37    40    1
