@<TRIPOS>MOLECULE
*****
 22 24 0 0 0
SMALL
GASTEIGER

@<TRIPOS>ATOM
      1 O          61.2742   89.0382   12.2199 O.2     1  UNL1       -0.2685
      2 C          62.4767   89.5605   11.4911 C.2     1  UNL1        0.2635
      3 N          62.6748   89.2342   10.0405 N.am    1  UNL1       -0.3013
      4 H          63.4640   89.5770    9.5621 H       1  UNL1        0.1497
      5 C          63.4812   90.4091   12.2129 C.2     1  UNL1        0.1341
      6 C          64.1451   91.6410   11.6729 C.2     1  UNL1        0.0257
      7 C          65.0722   92.1680   12.7277 C.2     1  UNL1        0.0261
      8 C          65.9875   93.3560   12.7569 C.2     1  UNL1        0.0594
      9 CL         66.0784   94.2623   11.5651 Cl      1  UNL1       -0.0822
     10 C          66.8120   93.6377   13.9780 C.2     1  UNL1        0.0189
     11 C          66.7212   92.7315   15.1697 C.2     1  UNL1        0.0422
     12 CL         67.5456   93.0132   16.3909 Cl      1  UNL1       -0.0865
     13 C          65.8059   91.5435   15.1406 C.3     1  UNL1        0.0837
     14 C          64.9814   91.2617   13.9196 C.2     1  UNL1        0.0652
     15 N          63.9981   90.1746   13.6014 N.2     1  UNL1       -0.2447
     16 C          61.6703   88.3856    9.3186 C.3     1  UNL1        0.0719
     17 C          62.0074   86.9280    9.2108 C.3     1  UNL1        0.0196
     18 C          61.2192   85.8316    8.5578 C.3     1  UNL1        0.0017
     19 C          59.8991   85.9220    7.8512 C.3     1  UNL1        0.0001
     20 C          59.0413   87.1313    7.6232 C.3     1  UNL1        0.0001
     21 C          59.2917   88.5486    8.0454 C.3     1  UNL1        0.0017
     22 C          60.4618   89.1069    8.7999 C.3     1  UNL1        0.0196
@<TRIPOS>BOND
     1     1     2    2
     2     2     3   am
     3     3    16    1
     4    16    17    1
     5    17    18    1
     6    18    19    1
     7    19    20    1
     8    20    21    1
     9    21    22    1
    10     2     5    1
    11     5     6    2
    12     6     7    1
    13     7     8    2
    14     8     9    1
    15     8    10    1
    16    10    11    2
    17    11    12    1
    18    11    13    1
    19    13    14    1
    20    14    15    2
    21    22    16    1
    22    15     5    1
    23    14     7    1
    24     3     4    1
@<TRIPOS>MOLECULE
*****
 22 24 0 0 0
SMALL
GASTEIGER

@<TRIPOS>ATOM
      1 O          62.3451   90.4781    9.6610 O.2     1  UNL1       -0.2685
      2 C          62.7203   89.7117   10.8946 C.2     1  UNL1        0.2635
      3 N          62.3231   88.2719   11.0328 N.am    1  UNL1       -0.3013
      4 H          62.5694   87.7688   11.8425 H       1  UNL1        0.1497
      5 C          63.4928   90.3851   11.9900 C.2     1  UNL1        0.1341
      6 C          63.2505   90.2320   13.4623 C.2     1  UNL1        0.0257
      7 C          64.2511   91.0821   14.1876 C.2     1  UNL1        0.0261
      8 C          64.4897   91.3260   15.6482 C.2     1  UNL1        0.0594
      9 CL         63.6290   90.6476   16.6724 Cl      1  UNL1       -0.0822
     10 C          65.5891   92.2485   16.0848 C.2     1  UNL1        0.0189
     11 C          66.4497   92.9270   15.0607 C.2     1  UNL1        0.0422
     12 CL         67.5491   93.8495   15.4972 Cl      1  UNL1       -0.0865
     13 C          66.2112   92.6830   13.6000 C.3     1  UNL1        0.0837
     14 C          65.1118   91.7606   13.1635 C.2     1  UNL1        0.0652
     15 N          64.6431   91.3298   11.8053 N.2     1  UNL1       -0.2447
     16 C          61.5506   87.5984    9.9375 C.3     1  UNL1        0.0719
     17 C          62.2848   86.5266    9.1876 C.3     1  UNL1        0.0196
     18 C          61.7959   85.6774    8.0519 C.3     1  UNL1        0.0017
     19 C          60.4520   85.6903    7.3856 C.3     1  UNL1        0.0001
     20 C          59.2652   86.5556    7.6905 C.3     1  UNL1        0.0001
     21 C          59.1292   87.6215    8.7369 C.3     1  UNL1        0.0017
     22 C          60.1463   88.0857    9.7369 C.3     1  UNL1        0.0196
@<TRIPOS>BOND
     1     1     2    2
     2     2     3   am
     3     3    16    1
     4    16    17    1
     5    17    18    1
     6    18    19    1
     7    19    20    1
     8    20    21    1
     9    21    22    1
    10     2     5    1
    11     5     6    2
    12     6     7    1
    13     7     8    2
    14     8     9    1
    15     8    10    1
    16    10    11    2
    17    11    12    1
    18    11    13    1
    19    13    14    1
    20    14    15    2
    21    22    16    1
    22    15     5    1
    23    14     7    1
    24     3     4    1
@<TRIPOS>MOLECULE
*****
 22 24 0 0 0
SMALL
GASTEIGER

@<TRIPOS>ATOM
      1 O          62.8583   91.0783    9.7191 O.2     1  UNL1       -0.2685
      2 C          63.0730   90.3122   10.9906 C.2     1  UNL1        0.2635
      3 N          62.4692   88.9491   11.1560 N.am    1  UNL1       -0.3013
      4 H          62.6101   88.4462   11.9906 H       1  UNL1        0.1497
      5 C          63.8916   90.9091   12.0968 C.2     1  UNL1        0.1341
      6 C          63.6059   90.7957   13.5650 C.2     1  UNL1        0.0257
      7 C          64.6773   91.5407   14.3045 C.2     1  UNL1        0.0261
      8 C          64.9123   91.7707   15.7681 C.2     1  UNL1        0.0594
      9 CL         63.9645   91.1968   16.7792 Cl      1  UNL1       -0.0822
     10 C          66.0951   92.5747   16.2204 C.2     1  UNL1        0.0189
     11 C          67.0429   93.1486   15.2094 C.2     1  UNL1        0.0422
     12 CL         68.2258   93.9525   15.6618 Cl      1  UNL1       -0.0865
     13 C          66.8079   92.9186   13.7459 C.3     1  UNL1        0.0837
     14 C          65.6251   92.1147   13.2935 C.2     1  UNL1        0.0652
     15 N          65.1395   91.7243   11.9290 N.2     1  UNL1       -0.2447
     16 C          61.6506   88.3521   10.0498 C.3     1  UNL1        0.0719
     17 C          60.6110   89.2523    9.4508 C.3     1  UNL1        0.0196
     18 C          59.6440   88.9567    8.3430 C.3     1  UNL1        0.0017
     19 C          59.4775   87.6877    7.5606 C.3     1  UNL1        0.0001
     20 C          60.2372   86.4011    7.6929 C.3     1  UNL1        0.0001
     21 C          61.3508   86.0656    8.6401 C.3     1  UNL1        0.0017
     22 C          61.9798   86.9338    9.6891 C.3     1  UNL1        0.0196
@<TRIPOS>BOND
     1     1     2    2
     2     2     3   am
     3     3    16    1
     4    16    17    1
     5    17    18    1
     6    18    19    1
     7    19    20    1
     8    20    21    1
     9    21    22    1
    10     2     5    1
    11     5     6    2
    12     6     7    1
    13     7     8    2
    14     8     9    1
    15     8    10    1
    16    10    11    2
    17    11    12    1
    18    11    13    1
    19    13    14    1
    20    14    15    2
    21    22    16    1
    22    15     5    1
    23    14     7    1
    24     3     4    1
@<TRIPOS>MOLECULE
*****
 22 24 0 0 0
SMALL
GASTEIGER

@<TRIPOS>ATOM
      1 O          61.6619   85.6414   11.9494 O.2     1  UNL1       -0.2685
      2 C          62.9052   85.9287   12.7380 C.2     1  UNL1        0.2635
      3 N          63.6811   84.8014   13.3520 N.am    1  UNL1       -0.3013
      4 H          64.4971   84.9900   13.8696 H       1  UNL1        0.1497
      5 C          63.3724   87.3434   12.9124 C.2     1  UNL1        0.1341
      6 C          63.1629   88.4672   11.9413 C.2     1  UNL1        0.0257
      7 C          63.7923   89.7009   12.5174 C.2     1  UNL1        0.0261
      8 C          63.8978   91.1067   12.0050 C.2     1  UNL1        0.0594
      9 CL         63.2993   91.4682   10.6778 Cl      1  UNL1       -0.0822
     10 C          64.6017   92.1511   12.8197 C.2     1  UNL1        0.0189
     11 C          65.2001   91.7897   14.1467 C.2     1  UNL1        0.0422
     12 CL         65.9041   92.8342   14.9615 Cl      1  UNL1       -0.0865
     13 C          65.0947   90.3840   14.6592 C.3     1  UNL1        0.0837
     14 C          64.3908   89.3396   13.8445 C.2     1  UNL1        0.0652
     15 N          64.1313   87.8825   14.0887 N.2     1  UNL1       -0.2447
     16 C          63.2139   83.3867   13.1776 C.3     1  UNL1        0.0719
     17 C          62.4127   82.8213   14.3128 C.3     1  UNL1        0.0196
     18 C          61.8094   81.4542   14.4418 C.3     1  UNL1        0.0017
     19 C          61.8582   80.3146   13.4676 C.3     1  UNL1        0.0001
     20 C          62.5224   80.2609   12.1237 C.3     1  UNL1        0.0001
     21 C          63.3018   81.3334   11.4222 C.3     1  UNL1        0.0017
     22 C          63.6095   82.7246   11.8912 C.3     1  UNL1        0.0196
@<TRIPOS>BOND
     1     1     2    2
     2     2     3   am
     3     3    16    1
     4    16    17    1
     5    17    18    1
     6    18    19    1
     7    19    20    1
     8    20    21    1
     9    21    22    1
    10     2     5    1
    11     5     6    2
    12     6     7    1
    13     7     8    2
    14     8     9    1
    15     8    10    1
    16    10    11    2
    17    11    12    1
    18    11    13    1
    19    13    14    1
    20    14    15    2
    21    22    16    1
    22    15     5    1
    23    14     7    1
    24     3     4    1
@<TRIPOS>MOLECULE
*****
 22 24 0 0 0
SMALL
GASTEIGER

@<TRIPOS>ATOM
      1 O          64.2379   89.1910   14.3450 O.2     1  UNL1       -0.2685
      2 C          64.0803   89.8841   13.0241 C.2     1  UNL1        0.2635
      3 N          64.8706   91.1243   12.7289 N.am    1  UNL1       -0.3013
      4 H          64.7672   91.5792   11.8619 H       1  UNL1        0.1497
      5 C          63.1324   89.3369   11.9983 C.2     1  UNL1        0.1341
      6 C          62.8529   87.8857   11.7414 C.2     1  UNL1        0.0257
      7 C          61.8454   87.7968   10.6337 C.2     1  UNL1        0.0261
      8 C          61.1961   86.6248    9.9593 C.2     1  UNL1        0.0594
      9 CL         61.5392   85.2286   10.3870 Cl      1  UNL1       -0.0822
     10 C          60.2036   86.8491    8.8571 C.2     1  UNL1        0.0189
     11 C          59.8605   88.2452    8.4294 C.2     1  UNL1        0.0422
     12 CL         58.8681   88.4695    7.3272 Cl      1  UNL1       -0.0865
     13 C          60.5098   89.4172    9.1039 C.3     1  UNL1        0.0837
     14 C          61.5023   89.1930   10.2060 C.2     1  UNL1        0.0652
     15 N          62.2977   90.1448   11.0494 N.2     1  UNL1       -0.2447
     16 C          65.8185   91.6716   13.7546 C.3     1  UNL1        0.0719
     17 C          65.2213   91.9739   15.0969 C.3     1  UNL1        0.0196
     18 C          65.8962   92.5235   16.3185 C.3     1  UNL1        0.0017
     19 C          67.3352   92.9065   16.4995 C.3     1  UNL1        0.0001
     20 C          68.4545   92.8344   15.5035 C.3     1  UNL1        0.0001
     21 C          68.4114   92.3617   14.0807 C.3     1  UNL1        0.0017
     22 C          67.2382   91.8441   13.3023 C.3     1  UNL1        0.0196
@<TRIPOS>BOND
     1     1     2    2
     2     2     3   am
     3     3    16    1
     4    16    17    1
     5    17    18    1
     6    18    19    1
     7    19    20    1
     8    20    21    1
     9    21    22    1
    10     2     5    1
    11     5     6    2
    12     6     7    1
    13     7     8    2
    14     8     9    1
    15     8    10    1
    16    10    11    2
    17    11    12    1
    18    11    13    1
    19    13    14    1
    20    14    15    2
    21    22    16    1
    22    15     5    1
    23    14     7    1
    24     3     4    1
@<TRIPOS>MOLECULE
*****
 22 24 0 0 0
SMALL
GASTEIGER

@<TRIPOS>ATOM
      1 O          63.6115   86.9190   16.4665 O.2     1  UNL1       -0.2685
      2 C          63.7660   86.7551   14.9835 C.2     1  UNL1        0.2635
      3 N          64.1555   87.9297   14.1357 N.am    1  UNL1       -0.3013
      4 H          64.2569   87.8221   13.1624 H       1  UNL1        0.1497
      5 C          63.5311   85.4167   14.3483 C.2     1  UNL1        0.1341
      6 C          63.7462   85.0766   12.9033 C.2     1  UNL1        0.0257
      7 C          63.3879   83.6331   12.7086 C.2     1  UNL1        0.0261
      8 C          63.4028   82.7501   11.4962 C.2     1  UNL1        0.0594
      9 CL         63.8393   83.3020   10.1715 Cl      1  UNL1       -0.0822
     10 C          62.9810   81.3149   11.6085 C.2     1  UNL1        0.0189
     11 C          62.5444   80.7629   12.9331 C.2     1  UNL1        0.0422
     12 CL         62.1227   79.3278   13.0454 Cl      1  UNL1       -0.0865
     13 C          62.5296   81.6460   14.1455 C.3     1  UNL1        0.0837
     14 C          62.9513   83.0811   14.0333 C.2     1  UNL1        0.0652
     15 N          63.0398   84.1834   15.0467 N.2     1  UNL1       -0.2447
     16 C          64.3904   89.2681   14.7709 C.3     1  UNL1        0.0719
     17 C          63.4268   89.6525   15.8542 C.3     1  UNL1        0.0196
     18 C          63.3925   90.9089   16.6729 C.3     1  UNL1        0.0017
     19 C          64.3136   92.0912   16.6105 C.3     1  UNL1        0.0001
     20 C          65.4963   92.3091   15.7139 C.3     1  UNL1        0.0001
     21 C          66.0500   91.3985   14.6584 C.3     1  UNL1        0.0017
     22 C          65.5579   90.0451   14.2387 C.3     1  UNL1        0.0196
@<TRIPOS>BOND
     1     1     2    2
     2     2     3   am
     3     3    16    1
     4    16    17    1
     5    17    18    1
     6    18    19    1
     7    19    20    1
     8    20    21    1
     9    21    22    1
    10     2     5    1
    11     5     6    2
    12     6     7    1
    13     7     8    2
    14     8     9    1
    15     8    10    1
    16    10    11    2
    17    11    12    1
    18    11    13    1
    19    13    14    1
    20    14    15    2
    21    22    16    1
    22    15     5    1
    23    14     7    1
    24     3     4    1
@<TRIPOS>MOLECULE
*****
 22 24 0 0 0
SMALL
GASTEIGER

@<TRIPOS>ATOM
      1 O          62.5315   87.8828   12.2816 O.2     1  UNL1       -0.2685
      2 C          63.6950   88.1726   13.1828 C.2     1  UNL1        0.2635
      3 N          64.2485   87.0921   14.0639 N.am    1  UNL1       -0.3013
      4 H          65.0121   87.2823   14.6554 H       1  UNL1        0.1497
      5 C          64.3050   89.5428   13.2031 C.2     1  UNL1        0.1341
      6 C          65.0468   90.1607   14.3511 C.2     1  UNL1        0.0257
      7 C          65.4806   91.5355   13.9363 C.2     1  UNL1        0.0261
      8 C          66.2457   92.6063   14.6560 C.2     1  UNL1        0.0594
      9 CL         66.7195   92.3747   16.0603 Cl      1  UNL1       -0.0822
     10 C          66.5371   93.9087   13.9713 C.2     1  UNL1        0.0189
     11 C          66.0634   94.1403   12.5671 C.2     1  UNL1        0.0422
     12 CL         66.3548   95.4428   11.8824 Cl      1  UNL1       -0.0865
     13 C          65.2983   93.0696   11.8475 C.3     1  UNL1        0.0837
     14 C          65.0068   91.7671   12.5321 C.2     1  UNL1        0.0652
     15 N          64.2803   90.5355   12.0789 N.2     1  UNL1       -0.2447
     16 C          63.6385   85.7218   14.0437 C.3     1  UNL1        0.0719
     17 C          63.5398   85.0732   12.6948 C.3     1  UNL1        0.0196
     18 C          62.9862   83.7241   12.3440 C.3     1  UNL1        0.0017
     19 C          62.3944   82.6901   13.2556 C.3     1  UNL1        0.0001
     20 C          62.2103   82.7502   14.7431 C.3     1  UNL1        0.0001
     21 C          62.5723   83.8589   15.6862 C.3     1  UNL1        0.0017
     22 C          63.2080   85.1814   15.3750 C.3     1  UNL1        0.0196
@<TRIPOS>BOND
     1     1     2    2
     2     2     3   am
     3     3    16    1
     4    16    17    1
     5    17    18    1
     6    18    19    1
     7    19    20    1
     8    20    21    1
     9    21    22    1
    10     2     5    1
    11     5     6    2
    12     6     7    1
    13     7     8    2
    14     8     9    1
    15     8    10    1
    16    10    11    2
    17    11    12    1
    18    11    13    1
    19    13    14    1
    20    14    15    2
    21    22    16    1
    22    15     5    1
    23    14     7    1
    24     3     4    1
@<TRIPOS>MOLECULE
*****
 22 24 0 0 0
SMALL
GASTEIGER

@<TRIPOS>ATOM
      1 O          63.4150   86.1122   15.4267 O.2     1  UNL1       -0.2685
      2 C          63.6027   86.6390   14.0349 C.2     1  UNL1        0.2635
      3 N          63.3628   85.7439   12.8555 N.am    1  UNL1       -0.3013
      4 H          63.4860   86.0897   11.9420 H       1  UNL1        0.1497
      5 C          64.0303   88.0611   13.8225 C.2     1  UNL1        0.1341
      6 C          63.6811   88.9200   12.6434 C.2     1  UNL1        0.0257
      7 C          64.3171   90.2635   12.8442 C.2     1  UNL1        0.0261
      8 C          64.3162   91.5093   12.0087 C.2     1  UNL1        0.0594
      9 CL         63.5740   91.5379   10.7055 Cl      1  UNL1       -0.0822
     10 C          65.0577   92.7265   12.4765 C.2     1  UNL1        0.0189
     11 C          65.7999   92.6979   13.7796 C.2     1  UNL1        0.0422
     12 CL         66.5413   93.9152   14.2473 Cl      1  UNL1       -0.0865
     13 C          65.8007   91.4522   14.6151 C.3     1  UNL1        0.0837
     14 C          65.0594   90.2350   14.1474 C.2     1  UNL1        0.0652
     15 N          64.8821   88.8737   14.7520 N.2     1  UNL1       -0.2447
     16 C          62.9353   84.3218   13.0677 C.3     1  UNL1        0.0719
     17 C          63.1198   83.4048   11.8951 C.3     1  UNL1        0.0196
     18 C          62.7944   81.9444   11.7896 C.3     1  UNL1        0.0017
     19 C          62.2041   81.0402   12.8307 C.3     1  UNL1        0.0001
     20 C          61.7934   81.3732   14.2345 C.3     1  UNL1        0.0001
     21 C          61.8716   82.6925   14.9437 C.3     1  UNL1        0.0017
     22 C          62.3798   84.0049   14.4245 C.3     1  UNL1        0.0196
@<TRIPOS>BOND
     1     1     2    2
     2     2     3   am
     3     3    16    1
     4    16    17    1
     5    17    18    1
     6    18    19    1
     7    19    20    1
     8    20    21    1
     9    21    22    1
    10     2     5    1
    11     5     6    2
    12     6     7    1
    13     7     8    2
    14     8     9    1
    15     8    10    1
    16    10    11    2
    17    11    12    1
    18    11    13    1
    19    13    14    1
    20    14    15    2
    21    22    16    1
    22    15     5    1
    23    14     7    1
    24     3     4    1
@<TRIPOS>MOLECULE
*****
 22 24 0 0 0
SMALL
GASTEIGER

@<TRIPOS>ATOM
      1 O          64.0986   86.3820   16.0756 O.2     1  UNL1       -0.2685
      2 C          63.8246   86.3768   14.6009 C.2     1  UNL1        0.2635
      3 N          63.8198   87.6661   13.8343 N.am    1  UNL1       -0.3013
      4 H          63.6400   87.6627   12.8664 H       1  UNL1        0.1497
      5 C          63.5553   85.0822   13.8926 C.2     1  UNL1        0.1341
      6 C          62.7160   83.9520   14.4104 C.2     1  UNL1        0.0257
      7 C          62.7201   82.8619   13.3800 C.2     1  UNL1        0.0261
      8 C          62.0660   81.5125   13.3440 C.2     1  UNL1        0.0594
      9 CL         61.2241   81.0559   14.4985 Cl      1  UNL1       -0.0822
     10 C          62.2538   80.6196   12.1533 C.2     1  UNL1        0.0189
     11 C          63.0956   81.0761   10.9989 C.2     1  UNL1        0.0422
     12 CL         63.2833   80.1832    9.8082 Cl      1  UNL1       -0.0865
     13 C          63.7497   82.4255   11.0349 C.3     1  UNL1        0.0837
     14 C          63.5619   83.3184   12.2255 C.2     1  UNL1        0.0652
     15 N          64.0781   84.6906   12.5423 N.2     1  UNL1       -0.2447
     16 C          64.0891   88.9608   14.5425 C.3     1  UNL1        0.0719
     17 C          63.3150   89.1837   15.8078 C.3     1  UNL1        0.0196
     18 C          63.3574   90.3621   16.7349 C.3     1  UNL1        0.0017
     19 C          64.1844   91.6088   16.6256 C.3     1  UNL1        0.0001
     20 C          65.1733   91.9848   15.5621 C.3     1  UNL1        0.0001
     21 C          65.5793   91.2071   14.3455 C.3     1  UNL1        0.0017
     22 C          65.0968   89.8613   13.8917 C.3     1  UNL1        0.0196
@<TRIPOS>BOND
     1     1     2    2
     2     2     3   am
     3     3    16    1
     4    16    17    1
     5    17    18    1
     6    18    19    1
     7    19    20    1
     8    20    21    1
     9    21    22    1
    10     2     5    1
    11     5     6    2
    12     6     7    1
    13     7     8    2
    14     8     9    1
    15     8    10    1
    16    10    11    2
    17    11    12    1
    18    11    13    1
    19    13    14    1
    20    14    15    2
    21    22    16    1
    22    15     5    1
    23    14     7    1
    24     3     4    1
