@<TRIPOS>MOLECULE
*****
 39 43 0 0 0
SMALL
GASTEIGER

@<TRIPOS>ATOM
      1 O          59.4217   89.5776    6.8321 O.2     1  UNL1       -0.2726
      2 C          60.0299   88.8701    8.0067 C.2     1  UNL1        0.2513
      3 C          60.1064   89.5563    9.3383 C.3     1  UNL1        0.1278
      4 C          60.7145   88.8489   10.5128 C.2     1  UNL1        0.0321
      5 C          61.2462   87.4550   10.3558 C.ar    1  UNL1        0.0245
      6 C          61.8544   86.7475   11.5303 C.ar    1  UNL1       -0.0014
      7 C          62.3860   85.3538   11.3732 C.ar    1  UNL1       -0.0122
      8 C          62.3095   84.6675   10.0416 C.ar    1  UNL1       -0.0022
      9 C          61.7014   85.3750    8.8671 C.ar    1  UNL1        0.0163
     10 C          61.1697   86.7687    9.0242 C.ar    1  UNL1        0.0742
     11 N          60.5615   87.4763    7.8496 N.am    1  UNL1       -0.1789
     12 N          60.7910   89.5351   11.8444 N.pl3   1  UNL1       -0.3368
     13 H          59.9953   89.5780   12.4225 H       1  UNL1        0.1465
     14 C          62.0799   90.1560   12.2952 C.3     1  UNL1        0.0716
     15 C          62.4968   90.0586   13.7329 C.3     1  UNL1        0.0386
     16 C          63.7857   90.6795   14.1837 C.3     1  UNL1        0.0974
     17 N          64.6577   91.3978   13.1969 N.3     1  UNL1       -0.1520
     18 C          64.2408   91.4952   11.7593 C.3     1  UNL1        0.0974
     19 C          62.9519   90.8743   11.3085 C.3     1  UNL1        0.0386
     20 S          65.9465   92.0187   13.6477 S.O2    1  UNL1        0.1302
     21 O          65.7208   93.1678   12.7104 O.2     1  UNL1       -0.1495
     22 O          66.1722   90.8696   14.5850 O.2     1  UNL1       -0.1495
     23 C          67.2355   92.6396   14.0986 C.3     1  UNL1        0.5359
     24 F          68.0025   91.5778   13.3677 F       1  UNL1       -0.1493
     25 F          66.4684   93.7014   14.8294 F       1  UNL1       -0.1493
     26 F          68.5244   93.2604   14.5494 F       1  UNL1       -0.1493
     27 C          62.9942   84.6462   12.5478 C.3     1  UNL1        0.0909
     28 C          62.7768   83.1734   12.7309 C.ar    1  UNL1       -0.0122
     29 C          63.2896   82.2063   11.7052 C.ar    1  UNL1       -0.0027
     30 C          63.0722   80.7335   11.8884 C.ar    1  UNL1        0.0111
     31 C          62.3420   80.2277   13.0972 C.ar    1  UNL1        0.0577
     32 CL         62.1246   78.7549   13.2803 Cl      1  UNL1       -0.0822
     33 C          61.8293   81.1948   14.1228 C.ar    1  UNL1        0.0111
     34 C          62.0467   82.6676   13.9397 C.ar    1  UNL1       -0.0027
     35 C          63.8198   85.4114   13.5391 C.ar    1  UNL1        0.0961
     36 N          63.7185   86.8808   13.8233 N.ar    1  UNL1       -0.2405
     37 C          64.7277   87.2192   14.8802 C.ar    1  UNL1        0.1061
     38 C          65.4527   85.9589   15.2492 C.ar    1  UNL1        0.0572
     39 S          64.8916   84.8417   14.4204 S.2     1  UNL1       -0.0696
@<TRIPOS>BOND
     1     1     2    2
     2     2     3    1
     3     3     4    1
     4     4    12    1
     5    12    14    1
     6    14    15    1
     7    15    16    1
     8    16    17    1
     9    17    20    1
    10    20    21    2
    11    20    22    2
    12    20    23    1
    13    23    24    1
    14    23    25    1
    15    23    26    1
    16    17    18    1
    17    18    19    1
    18     4     5    2
    19     5     6   ar
    20     6     7   ar
    21     7    27    1
    22    27    28    1
    23    28    29   ar
    24    29    30   ar
    25    30    31   ar
    26    31    32    1
    27    31    33   ar
    28    33    34   ar
    29    27    35    1
    30    35    36   ar
    31    36    37   ar
    32    37    38   ar
    33    38    39   ar
    34     7     8   ar
    35     8     9   ar
    36     9    10   ar
    37    10    11    2
    38    11     2    1
    39    19    14    1
    40    10     5   ar
    41    34    28   ar
    42    39    35   ar
    43    12    13    1
@<TRIPOS>MOLECULE
*****
 39 43 0 0 0
SMALL
GASTEIGER

@<TRIPOS>ATOM
      1 O          58.3801   86.6812    6.9643 O.2     1  UNL1       -0.2726
      2 C          59.4200   87.1651    7.9311 C.2     1  UNL1        0.2513
      3 C          60.6815   86.3786    8.1314 C.3     1  UNL1        0.1278
      4 C          61.7214   86.8624    9.0981 C.2     1  UNL1        0.0321
      5 C          61.4998   88.1327    9.8645 C.ar    1  UNL1        0.0245
      6 C          62.5397   88.6165   10.8313 C.ar    1  UNL1       -0.0014
      7 C          62.3180   89.8868   11.5976 C.ar    1  UNL1       -0.0122
      8 C          61.0566   90.6732   11.3972 C.ar    1  UNL1       -0.0022
      9 C          60.0167   90.1894   10.4305 C.ar    1  UNL1        0.0163
     10 C          60.2383   88.9192    9.6642 C.ar    1  UNL1        0.0742
     11 N          59.1984   88.4353    8.6974 N.am    1  UNL1       -0.1789
     12 N          62.9829   86.0759    9.2985 N.pl3   1  UNL1       -0.3368
     13 H          63.8117   86.3506    8.8436 H       1  UNL1        0.1465
     14 C          62.9816   84.8711   10.1920 C.3     1  UNL1        0.0716
     15 C          62.3557   84.9473   11.5530 C.3     1  UNL1        0.0386
     16 C          62.3544   83.7424   12.4465 C.3     1  UNL1        0.0974
     17 N          62.9791   82.4613   11.9789 N.3     1  UNL1       -0.1520
     18 C          63.6050   82.3851   10.6179 C.3     1  UNL1        0.0974
     19 C          63.6062   83.5900    9.7244 C.3     1  UNL1        0.0386
     20 S          62.9778   81.2565   12.8723 S.O2    1  UNL1        0.1302
     21 O          62.8509   80.3663   11.6717 O.2     1  UNL1       -0.1495
     22 O          63.1047   82.1466   14.0729 O.2     1  UNL1       -0.1495
     23 C          62.9765   80.0515   13.7658 C.3     1  UNL1        0.5359
     24 F          61.5893   79.7127   13.3069 F       1  UNL1       -0.1493
     25 F          64.3638   80.3904   14.2248 F       1  UNL1       -0.1493
     26 F          62.9752   78.8467   14.6593 F       1  UNL1       -0.1493
     27 C          63.3579   90.3706   12.5644 C.3     1  UNL1        0.0909
     28 C          64.2858   91.4825   12.1735 C.ar    1  UNL1       -0.0122
     29 C          64.3174   91.9692   10.7549 C.ar    1  UNL1       -0.0027
     30 C          65.2453   93.0811   10.3641 C.ar    1  UNL1        0.0111
     31 C          66.1416   93.7062   11.3917 C.ar    1  UNL1        0.0577
     32 CL         67.0695   94.8180   11.0008 Cl      1  UNL1       -0.0822
     33 C          66.1100   93.2194   12.8101 C.ar    1  UNL1        0.0111
     34 C          65.1821   92.1075   13.2010 C.ar    1  UNL1       -0.0027
     35 C          63.4699   89.7426   13.9219 C.ar    1  UNL1        0.0961
     36 N          62.8217   90.2403   15.1798 N.ar    1  UNL1       -0.2405
     37 C          63.2009   89.3120   16.2953 C.ar    1  UNL1        0.1061
     38 C          64.0835   88.2405   15.7268 C.ar    1  UNL1        0.0572
     39 S          64.2497   88.5067   14.2600 S.2     1  UNL1       -0.0696
@<TRIPOS>BOND
     1     1     2    2
     2     2     3    1
     3     3     4    1
     4     4    12    1
     5    12    14    1
     6    14    15    1
     7    15    16    1
     8    16    17    1
     9    17    20    1
    10    20    21    2
    11    20    22    2
    12    20    23    1
    13    23    24    1
    14    23    25    1
    15    23    26    1
    16    17    18    1
    17    18    19    1
    18     4     5    2
    19     5     6   ar
    20     6     7   ar
    21     7    27    1
    22    27    28    1
    23    28    29   ar
    24    29    30   ar
    25    30    31   ar
    26    31    32    1
    27    31    33   ar
    28    33    34   ar
    29    27    35    1
    30    35    36   ar
    31    36    37   ar
    32    37    38   ar
    33    38    39   ar
    34     7     8   ar
    35     8     9   ar
    36     9    10   ar
    37    10    11    2
    38    11     2    1
    39    19    14    1
    40    10     5   ar
    41    34    28   ar
    42    39    35   ar
    43    12    13    1
@<TRIPOS>MOLECULE
*****
 39 43 0 0 0
SMALL
GASTEIGER

@<TRIPOS>ATOM
      1 O          59.6792   89.8336    7.1564 O.2     1  UNL1       -0.2726
      2 C          60.2105   89.0613    8.3274 C.2     1  UNL1        0.2513
      3 C          60.3435   89.7254    9.6658 C.3     1  UNL1        0.1278
      4 C          60.8748   88.9531   10.8368 C.2     1  UNL1        0.0321
      5 C          61.2731   87.5166   10.6694 C.ar    1  UNL1        0.0245
      6 C          61.8044   86.7443   11.8404 C.ar    1  UNL1       -0.0014
      7 C          62.2027   85.3079   11.6730 C.ar    1  UNL1       -0.0122
      8 C          62.0697   84.6438   10.3346 C.ar    1  UNL1       -0.0022
      9 C          61.5384   85.4161    9.1637 C.ar    1  UNL1        0.0163
     10 C          61.1401   86.8525    9.3310 C.ar    1  UNL1        0.0742
     11 N          60.6088   87.6249    8.1600 N.am    1  UNL1       -0.1789
     12 N          61.0078   89.6172   12.1752 N.pl3   1  UNL1       -0.3368
     13 H          60.2299   89.6740   12.7760 H       1  UNL1        0.1465
     14 C          62.3258   90.1948   12.5981 C.3     1  UNL1        0.0716
     15 C          62.8471   89.9402   13.9815 C.3     1  UNL1        0.0386
     16 C          64.1651   90.5178   14.4044 C.3     1  UNL1        0.0974
     17 N          64.9621   91.3501   13.4441 N.3     1  UNL1       -0.1520
     18 C          64.4409   91.6048   12.0608 C.3     1  UNL1        0.0974
     19 C          63.1228   91.0271   11.6378 C.3     1  UNL1        0.0386
     20 S          66.2802   91.9277   13.8671 S.O2    1  UNL1        0.1302
     21 O          66.6130   92.2179   12.4336 O.2     1  UNL1       -0.1495
     22 O          65.9473   91.6376   15.3006 O.2     1  UNL1       -0.1495
     23 C          67.5983   92.5054   14.2901 C.3     1  UNL1        0.5359
     24 F          68.3075   91.5734   13.3528 F       1  UNL1       -0.1493
     25 F          66.8892   93.4373   15.2274 F       1  UNL1       -0.1493
     26 F          68.9164   93.0830   14.7131 F       1  UNL1       -0.1493
     27 C          62.7340   84.5356   12.8441 C.3     1  UNL1        0.0909
     28 C          62.8410   85.1915   14.1888 C.ar    1  UNL1       -0.0122
     29 C          63.8748   86.2522   14.4258 C.ar    1  UNL1       -0.0027
     30 C          63.9818   86.9081   15.7705 C.ar    1  UNL1        0.0111
     31 C          63.0550   86.5033   16.8783 C.ar    1  UNL1        0.0577
     32 CL         63.1620   87.1591   18.2231 Cl      1  UNL1       -0.0822
     33 C          62.0212   85.4426   16.6413 C.ar    1  UNL1        0.0111
     34 C          61.9142   84.7867   15.2966 C.ar    1  UNL1       -0.0027
     35 C          63.1583   83.1074   12.6703 C.ar    1  UNL1        0.0961
     36 N          62.2867   81.9002   12.8528 N.ar    1  UNL1       -0.2405
     37 C          63.1184   80.6824   12.5788 C.ar    1  UNL1        0.1061
     38 C          64.5040   81.1368   12.2269 C.ar    1  UNL1        0.0572
     39 S          64.5286   82.6356   12.2835 S.2     1  UNL1       -0.0696
@<TRIPOS>BOND
     1     1     2    2
     2     2     3    1
     3     3     4    1
     4     4    12    1
     5    12    14    1
     6    14    15    1
     7    15    16    1
     8    16    17    1
     9    17    20    1
    10    20    21    2
    11    20    22    2
    12    20    23    1
    13    23    24    1
    14    23    25    1
    15    23    26    1
    16    17    18    1
    17    18    19    1
    18     4     5    2
    19     5     6   ar
    20     6     7   ar
    21     7    27    1
    22    27    28    1
    23    28    29   ar
    24    29    30   ar
    25    30    31   ar
    26    31    32    1
    27    31    33   ar
    28    33    34   ar
    29    27    35    1
    30    35    36   ar
    31    36    37   ar
    32    37    38   ar
    33    38    39   ar
    34     7     8   ar
    35     8     9   ar
    36     9    10   ar
    37    10    11    2
    38    11     2    1
    39    19    14    1
    40    10     5   ar
    41    34    28   ar
    42    39    35   ar
    43    12    13    1
@<TRIPOS>MOLECULE
*****
 39 43 0 0 0
SMALL
GASTEIGER

@<TRIPOS>ATOM
      1 O          58.7349   87.7178    6.7225 O.2     1  UNL1       -0.2726
      2 C          59.7387   87.9236    7.8181 C.2     1  UNL1        0.2513
      3 C          60.9127   86.9985    7.9431 C.3     1  UNL1        0.1278
      4 C          61.9165   87.2043    9.0386 C.2     1  UNL1        0.0321
      5 C          61.7461   88.3352   10.0091 C.ar    1  UNL1        0.0245
      6 C          62.7499   88.5410   11.1046 C.ar    1  UNL1       -0.0014
      7 C          62.5795   89.6719   12.0751 C.ar    1  UNL1       -0.0122
      8 C          61.4054   90.5971   11.9502 C.ar    1  UNL1       -0.0022
      9 C          60.4017   90.3913   10.8547 C.ar    1  UNL1        0.0163
     10 C          60.5721   89.2604    9.8842 C.ar    1  UNL1        0.0742
     11 N          59.5683   89.0546    8.7886 N.am    1  UNL1       -0.1789
     12 N          63.0906   86.2791    9.1635 N.pl3   1  UNL1       -0.3368
     13 H          63.9110   86.4525    8.6477 H       1  UNL1        0.1465
     14 C          63.0147   85.0898   10.0744 C.3     1  UNL1        0.0716
     15 C          63.6082   83.7797    9.6484 C.3     1  UNL1        0.0386
     16 C          63.5323   82.5904   10.5593 C.3     1  UNL1        0.0974
     17 N          62.8630   82.7112   11.8963 N.3     1  UNL1       -0.1520
     18 C          62.2695   84.0212   12.3223 C.3     1  UNL1        0.0974
     19 C          62.3453   85.2106   11.4114 C.3     1  UNL1        0.0386
     20 S          62.7871   81.5219   12.8072 S.O2    1  UNL1        0.1302
     21 O          62.8373   80.6083   11.6186 O.2     1  UNL1       -0.1495
     22 O          62.7369   82.4355   13.9958 O.2     1  UNL1       -0.1495
     23 C          62.7112   80.3326   13.7182 C.3     1  UNL1        0.5359
     24 F          61.2447   80.2054   13.4299 F       1  UNL1       -0.1493
     25 F          64.1777   80.4598   14.0064 F       1  UNL1       -0.1493
     26 F          62.6353   79.1434   14.6291 F       1  UNL1       -0.1493
     27 C          63.5833   89.8778   13.1707 C.3     1  UNL1        0.0909
     28 C          63.5250   89.0339   14.4095 C.ar    1  UNL1       -0.0122
     29 C          63.9730   87.6030   14.3640 C.ar    1  UNL1       -0.0027
     30 C          63.9147   86.7592   15.6028 C.ar    1  UNL1        0.0111
     31 C          63.4085   87.3463   16.8870 C.ar    1  UNL1        0.0577
     32 CL         63.3503   86.5024   18.1258 Cl      1  UNL1       -0.0822
     33 C          62.9606   88.7771   16.9324 C.ar    1  UNL1        0.0111
     34 C          63.0188   89.6209   15.6937 C.ar    1  UNL1       -0.0027
     35 C          64.6452   90.9274   13.0275 C.ar    1  UNL1        0.0961
     36 N          65.7669   91.1839   13.9898 N.ar    1  UNL1       -0.2405
     37 C          66.5868   92.3198   13.4539 C.ar    1  UNL1        0.1061
     38 C          65.9719   92.7653   12.1602 C.ar    1  UNL1        0.0572
     39 S          64.7720   91.9048   11.8967 S.2     1  UNL1       -0.0696
@<TRIPOS>BOND
     1     1     2    2
     2     2     3    1
     3     3     4    1
     4     4    12    1
     5    12    14    1
     6    14    15    1
     7    15    16    1
     8    16    17    1
     9    17    20    1
    10    20    21    2
    11    20    22    2
    12    20    23    1
    13    23    24    1
    14    23    25    1
    15    23    26    1
    16    17    18    1
    17    18    19    1
    18     4     5    2
    19     5     6   ar
    20     6     7   ar
    21     7    27    1
    22    27    28    1
    23    28    29   ar
    24    29    30   ar
    25    30    31   ar
    26    31    32    1
    27    31    33   ar
    28    33    34   ar
    29    27    35    1
    30    35    36   ar
    31    36    37   ar
    32    37    38   ar
    33    38    39   ar
    34     7     8   ar
    35     8     9   ar
    36     9    10   ar
    37    10    11    2
    38    11     2    1
    39    19    14    1
    40    10     5   ar
    41    34    28   ar
    42    39    35   ar
    43    12    13    1
@<TRIPOS>MOLECULE
*****
 39 43 0 0 0
SMALL
GASTEIGER

@<TRIPOS>ATOM
      1 O          59.2345   86.7990    8.9344 O.2     1  UNL1       -0.2726
      2 C          60.3368   87.5861    9.5793 C.2     1  UNL1        0.2513
      3 C          61.1418   86.9783   10.6895 C.3     1  UNL1        0.1278
      4 C          62.2440   87.7653   11.3343 C.2     1  UNL1        0.0321
      5 C          62.5412   89.1600   10.8690 C.ar    1  UNL1        0.0245
      6 C          63.6433   89.9470   11.5138 C.ar    1  UNL1       -0.0014
      7 C          63.9404   91.3417   11.0485 C.ar    1  UNL1       -0.0122
      8 C          63.1353   91.9494    9.9383 C.ar    1  UNL1       -0.0022
      9 C          62.0332   91.1624    9.2934 C.ar    1  UNL1        0.0163
     10 C          61.7361   89.7678    9.7588 C.ar    1  UNL1        0.0742
     11 N          60.6339   88.9807    9.1139 N.am    1  UNL1       -0.1789
     12 N          63.0491   87.1576   12.4445 N.pl3   1  UNL1       -0.3368
     13 H          63.6338   87.7256   12.9965 H       1  UNL1        0.1465
     14 C          62.9632   85.6845   12.7138 C.3     1  UNL1        0.0716
     15 C          62.9874   85.1773   14.1253 C.3     1  UNL1        0.0386
     16 C          62.9016   83.7042   14.3945 C.3     1  UNL1        0.0974
     17 N          62.7915   82.7382   13.2523 N.3     1  UNL1       -0.1520
     18 C          62.7672   83.2453   11.8409 C.3     1  UNL1        0.0974
     19 C          62.8531   84.7184   11.5716 C.3     1  UNL1        0.0386
     20 S          62.7056   81.2651   13.5215 S.O2    1  UNL1        0.1302
     21 O          62.9982   80.9841   12.0775 O.2     1  UNL1       -0.1495
     22 O          62.4130   81.5461   14.9656 O.2     1  UNL1       -0.1495
     23 C          62.6197   79.7919   13.7909 C.3     1  UNL1        0.5359
     24 F          61.1457   79.8275   13.5154 F       1  UNL1       -0.1493
     25 F          64.0937   79.7563   14.0663 F       1  UNL1       -0.1493
     26 F          62.5338   78.3188   14.0601 F       1  UNL1       -0.1493
     27 C          65.0426   92.1287   11.6934 C.3     1  UNL1        0.0909
     28 C          65.8131   93.1357   10.8919 C.ar    1  UNL1       -0.0122
     29 C          66.9590   92.6917   10.0318 C.ar    1  UNL1       -0.0027
     30 C          67.7295   93.6987    9.2304 C.ar    1  UNL1        0.0111
     31 C          67.3540   95.1498    9.2891 C.ar    1  UNL1        0.0577
     32 CL         68.1245   96.1569    8.4877 Cl      1  UNL1       -0.0822
     33 C          66.2082   95.5938   10.1492 C.ar    1  UNL1        0.0111
     34 C          65.4377   94.5868   10.9506 C.ar    1  UNL1       -0.0027
     35 C          65.3743   91.9087   13.1395 C.ar    1  UNL1        0.0961
     36 N          64.3888   91.6541   14.2414 N.ar    1  UNL1       -0.2405
     37 C          65.1552   91.4927   15.5206 C.ar    1  UNL1        0.1061
     38 C          66.6144   91.6474   15.2094 C.ar    1  UNL1        0.0572
     39 S          66.7498   91.9045   13.7379 S.2     1  UNL1       -0.0696
@<TRIPOS>BOND
     1     1     2    2
     2     2     3    1
     3     3     4    1
     4     4    12    1
     5    12    14    1
     6    14    15    1
     7    15    16    1
     8    16    17    1
     9    17    20    1
    10    20    21    2
    11    20    22    2
    12    20    23    1
    13    23    24    1
    14    23    25    1
    15    23    26    1
    16    17    18    1
    17    18    19    1
    18     4     5    2
    19     5     6   ar
    20     6     7   ar
    21     7    27    1
    22    27    28    1
    23    28    29   ar
    24    29    30   ar
    25    30    31   ar
    26    31    32    1
    27    31    33   ar
    28    33    34   ar
    29    27    35    1
    30    35    36   ar
    31    36    37   ar
    32    37    38   ar
    33    38    39   ar
    34     7     8   ar
    35     8     9   ar
    36     9    10   ar
    37    10    11    2
    38    11     2    1
    39    19    14    1
    40    10     5   ar
    41    34    28   ar
    42    39    35   ar
    43    12    13    1
@<TRIPOS>MOLECULE
*****
 39 43 0 0 0
SMALL
GASTEIGER

@<TRIPOS>ATOM
      1 O          65.4602   96.1066    3.3162 O.2     1  UNL1       -0.2726
      2 C          64.9212   95.5959    2.0129 C.2     1  UNL1        0.2513
      3 C          63.8956   94.5014    2.0028 C.3     1  UNL1        0.1278
      4 C          63.3566   93.9906    0.6995 C.2     1  UNL1        0.0321
      5 C          63.8432   94.5744   -0.5938 C.ar    1  UNL1        0.0245
      6 C          63.3042   94.0637   -1.8971 C.ar    1  UNL1       -0.0014
      7 C          63.7909   94.6475   -3.1902 C.ar    1  UNL1       -0.0122
      8 C          64.8165   95.7420   -3.1801 C.ar    1  UNL1       -0.0022
      9 C          65.3555   96.2527   -1.8768 C.ar    1  UNL1        0.0163
     10 C          64.8689   95.6689   -0.5837 C.ar    1  UNL1        0.0742
     11 N          65.4079   96.1796    0.7197 N.am    1  UNL1       -0.1789
     12 N          62.3309   92.8961    0.6894 N.pl3   1  UNL1       -0.3368
     13 H          62.5741   91.9909    0.9903 H       1  UNL1        0.1465
     14 C          60.9348   93.1809    0.2207 C.3     1  UNL1        0.0716
     15 C          60.1278   92.0988   -0.4333 C.3     1  UNL1        0.0386
     16 C          58.7316   92.3835   -0.9020 C.3     1  UNL1        0.0974
     17 N          58.1424   93.7505   -0.7166 N.3     1  UNL1       -0.1520
     18 C          58.9494   94.8326   -0.0625 C.3     1  UNL1        0.0974
     19 C          60.3456   94.5478    0.4061 C.3     1  UNL1        0.0386
     20 S          56.7463   94.0352   -1.1852 S.O2    1  UNL1        0.1302
     21 O          57.0503   95.5040   -1.1985 O.2     1  UNL1       -0.1495
     22 O          56.4422   92.5665   -1.1719 O.2     1  UNL1       -0.1495
     23 C          55.3501   94.3200   -1.6539 C.3     1  UNL1        0.5359
     24 F          55.1473   92.8608   -1.9362 F       1  UNL1       -0.1493
     25 F          55.5528   95.7791   -1.3715 F       1  UNL1       -0.1493
     26 F          53.9539   94.6047   -2.1225 F       1  UNL1       -0.1493
     27 C          63.2518   94.1368   -4.4936 C.3     1  UNL1        0.0909
     28 C          61.7974   94.3031   -4.8204 C.ar    1  UNL1       -0.0122
     29 C          61.3747   94.6061   -6.2275 C.ar    1  UNL1       -0.0027
     30 C          59.9202   94.7724   -6.5543 C.ar    1  UNL1        0.0111
     31 C          58.8884   94.6358   -5.4741 C.ar    1  UNL1        0.0577
     32 CL         57.4339   94.8021   -5.8009 Cl      1  UNL1       -0.0822
     33 C          59.3111   94.3328   -4.0672 C.ar    1  UNL1        0.0111
     34 C          60.7656   94.1665   -3.7403 C.ar    1  UNL1       -0.0027
     35 C          64.1673   93.4597   -5.4701 C.ar    1  UNL1        0.0961
     36 N          64.2616   91.9823   -5.7117 N.ar    1  UNL1       -0.2405
     37 C          65.3018   91.7507   -6.7673 C.ar    1  UNL1        0.1061
     38 C          65.8503   93.0851   -7.1781 C.ar    1  UNL1        0.0572
     39 S          65.1492   94.1413   -6.3764 S.2     1  UNL1       -0.0696
@<TRIPOS>BOND
     1     1     2    2
     2     2     3    1
     3     3     4    1
     4     4    12    1
     5    12    14    1
     6    14    15    1
     7    15    16    1
     8    16    17    1
     9    17    20    1
    10    20    21    2
    11    20    22    2
    12    20    23    1
    13    23    24    1
    14    23    25    1
    15    23    26    1
    16    17    18    1
    17    18    19    1
    18     4     5    2
    19     5     6   ar
    20     6     7   ar
    21     7    27    1
    22    27    28    1
    23    28    29   ar
    24    29    30   ar
    25    30    31   ar
    26    31    32    1
    27    31    33   ar
    28    33    34   ar
    29    27    35    1
    30    35    36   ar
    31    36    37   ar
    32    37    38   ar
    33    38    39   ar
    34     7     8   ar
    35     8     9   ar
    36     9    10   ar
    37    10    11    2
    38    11     2    1
    39    19    14    1
    40    10     5   ar
    41    34    28   ar
    42    39    35   ar
    43    12    13    1
@<TRIPOS>MOLECULE
*****
 39 43 0 0 0
SMALL
GASTEIGER

@<TRIPOS>ATOM
      1 O          61.7332   85.2165   18.0689 O.2     1  UNL1       -0.2726
      2 C          62.4654   86.1631   17.1645 C.2     1  UNL1        0.2513
      3 C          63.1805   85.6414   15.9535 C.3     1  UNL1        0.1278
      4 C          63.9127   86.5879   15.0491 C.2     1  UNL1        0.0321
      5 C          63.9298   88.0562   15.3556 C.ar    1  UNL1        0.0245
      6 C          64.6619   89.0027   14.4512 C.ar    1  UNL1       -0.0014
      7 C          64.6790   90.4709   14.7577 C.ar    1  UNL1       -0.0122
      8 C          63.9639   90.9926   15.9687 C.ar    1  UNL1       -0.0022
      9 C          63.2317   90.0461   16.8731 C.ar    1  UNL1        0.0163
     10 C          63.2147   88.5779   16.5666 C.ar    1  UNL1        0.0742
     11 N          62.4825   87.6313   17.4710 N.am    1  UNL1       -0.1789
     12 N          64.6278   86.0662   13.8381 N.pl3   1  UNL1       -0.3368
     13 H          65.3513   86.5934   13.4285 H       1  UNL1        0.1465
     14 C          64.2406   84.7412   13.2513 C.3     1  UNL1        0.0716
     15 C          63.4082   84.6875   12.0045 C.3     1  UNL1        0.0386
     16 C          63.0210   83.3625   11.4177 C.3     1  UNL1        0.0974
     17 N          63.4661   82.0911   12.0776 N.3     1  UNL1       -0.1520
     18 C          64.2985   82.1447   13.3243 C.3     1  UNL1        0.0974
     19 C          64.6857   83.4698   13.9112 C.3     1  UNL1        0.0386
     20 S          63.0789   80.7662   11.4908 S.O2    1  UNL1        0.1302
     21 O          63.3795   81.2869   10.1166 O.2     1  UNL1       -0.1495
     22 O          62.7784   80.2454   12.8649 O.2     1  UNL1       -0.1495
     23 C          62.6917   79.4411   10.9039 C.3     1  UNL1        0.5359
     24 F          62.9523   79.9749    9.5266 F       1  UNL1       -0.1493
     25 F          62.4310   78.9072   12.2813 F       1  UNL1       -0.1493
     26 F          62.3045   78.1161   10.3171 F       1  UNL1       -0.1493
     27 C          65.4112   91.4175   13.8533 C.3     1  UNL1        0.0909
     28 C          66.6649   92.0901   14.3283 C.ar    1  UNL1       -0.0122
     29 C          67.9882   91.7223   13.7251 C.ar    1  UNL1       -0.0027
     30 C          69.2419   92.3949   14.2001 C.ar    1  UNL1        0.0111
     31 C          69.1724   93.4353   15.2785 C.ar    1  UNL1        0.0577
     32 CL         70.4262   94.1080   15.7535 Cl      1  UNL1       -0.0822
     33 C          67.8493   93.8031   15.8816 C.ar    1  UNL1        0.0111
     34 C          66.5955   93.1305   15.4066 C.ar    1  UNL1       -0.0027
     35 C          64.8896   91.6914   12.4738 C.ar    1  UNL1        0.0961
     36 N          63.7046   91.0325   11.8323 N.ar    1  UNL1       -0.2405
     37 C          63.5441   91.6062   10.4557 C.ar    1  UNL1        0.1061
     38 C          64.6299   92.6197   10.2464 C.ar    1  UNL1        0.0572
     39 S          65.4615   92.6724   11.4937 S.2     1  UNL1       -0.0696
@<TRIPOS>BOND
     1     1     2    2
     2     2     3    1
     3     3     4    1
     4     4    12    1
     5    12    14    1
     6    14    15    1
     7    15    16    1
     8    16    17    1
     9    17    20    1
    10    20    21    2
    11    20    22    2
    12    20    23    1
    13    23    24    1
    14    23    25    1
    15    23    26    1
    16    17    18    1
    17    18    19    1
    18     4     5    2
    19     5     6   ar
    20     6     7   ar
    21     7    27    1
    22    27    28    1
    23    28    29   ar
    24    29    30   ar
    25    30    31   ar
    26    31    32    1
    27    31    33   ar
    28    33    34   ar
    29    27    35    1
    30    35    36   ar
    31    36    37   ar
    32    37    38   ar
    33    38    39   ar
    34     7     8   ar
    35     8     9   ar
    36     9    10   ar
    37    10    11    2
    38    11     2    1
    39    19    14    1
    40    10     5   ar
    41    34    28   ar
    42    39    35   ar
    43    12    13    1
@<TRIPOS>MOLECULE
*****
 39 43 0 0 0
SMALL
GASTEIGER

@<TRIPOS>ATOM
      1 O          59.0691   86.8931    8.8325 O.2     1  UNL1       -0.2726
      2 C          60.2112   87.6212    9.4772 C.2     1  UNL1        0.2513
      3 C          61.0082   86.9570   10.5605 C.3     1  UNL1        0.1278
      4 C          62.1502   87.6850   11.2052 C.2     1  UNL1        0.0321
      5 C          62.4953   89.0774   10.7665 C.ar    1  UNL1        0.0245
      6 C          63.6374   89.8054   11.4112 C.ar    1  UNL1       -0.0014
      7 C          63.9824   91.1977   10.9725 C.ar    1  UNL1       -0.0122
      8 C          63.1854   91.8619    9.8892 C.ar    1  UNL1       -0.0022
      9 C          62.0434   91.1339    9.2445 C.ar    1  UNL1        0.0163
     10 C          61.6983   89.7416    9.6832 C.ar    1  UNL1        0.0742
     11 N          60.5562   89.0135    9.0385 N.am    1  UNL1       -0.1789
     12 N          62.9472   87.0208   12.2885 N.pl3   1  UNL1       -0.3368
     13 H          63.5149   87.5615   12.8840 H       1  UNL1        0.1465
     14 C          62.8793   85.5328   12.4645 C.3     1  UNL1        0.0716
     15 C          62.8337   84.9418   13.8425 C.3     1  UNL1        0.0386
     16 C          62.7658   83.4537   14.0185 C.3     1  UNL1        0.0974
     17 N          62.7435   82.5566   12.8166 N.3     1  UNL1       -0.1520
     18 C          62.7892   83.1474   11.4387 C.3     1  UNL1        0.0974
     19 C          62.8571   84.6356   11.2626 C.3     1  UNL1        0.0386
     20 S          62.6757   81.0685   12.9927 S.O2    1  UNL1        0.1302
     21 O          62.4681   81.2524   14.4668 O.2     1  UNL1       -0.1495
     22 O          62.8832   80.8847   11.5186 O.2     1  UNL1       -0.1495
     23 C          62.6078   79.5804   13.1687 C.3     1  UNL1        0.5359
     24 F          62.5191   79.7603   14.6552 F       1  UNL1       -0.1493
     25 F          62.6965   79.4005   11.6822 F       1  UNL1       -0.1493
     26 F          62.5399   78.0923   13.3447 F       1  UNL1       -0.1493
     27 C          65.1245   91.9258   11.6172 C.3     1  UNL1        0.0909
     28 C          65.2016   92.0267   13.1118 C.ar    1  UNL1       -0.0122
     29 C          66.2111   92.9334   13.7512 C.ar    1  UNL1       -0.0027
     30 C          66.2881   93.0343   15.2458 C.ar    1  UNL1        0.0111
     31 C          65.3556   92.2285   16.1010 C.ar    1  UNL1        0.0577
     32 CL         65.4327   92.3295   17.5956 Cl      1  UNL1       -0.0822
     33 C          64.3462   91.3219   15.4616 C.ar    1  UNL1        0.0111
     34 C          64.2692   91.2210   13.9670 C.ar    1  UNL1       -0.0027
     35 C          66.1895   92.5530   10.7672 C.ar    1  UNL1        0.0961
     36 N          67.4489   91.8869   10.2977 N.ar    1  UNL1       -0.2405
     37 C          68.2198   92.8786    9.4779 C.ar    1  UNL1        0.1061
     38 C          67.4369   94.1576    9.4407 C.ar    1  UNL1        0.0572
     39 S          66.1821   93.9563   10.2375 S.2     1  UNL1       -0.0696
@<TRIPOS>BOND
     1     1     2    2
     2     2     3    1
     3     3     4    1
     4     4    12    1
     5    12    14    1
     6    14    15    1
     7    15    16    1
     8    16    17    1
     9    17    20    1
    10    20    21    2
    11    20    22    2
    12    20    23    1
    13    23    24    1
    14    23    25    1
    15    23    26    1
    16    17    18    1
    17    18    19    1
    18     4     5    2
    19     5     6   ar
    20     6     7   ar
    21     7    27    1
    22    27    28    1
    23    28    29   ar
    24    29    30   ar
    25    30    31   ar
    26    31    32    1
    27    31    33   ar
    28    33    34   ar
    29    27    35    1
    30    35    36   ar
    31    36    37   ar
    32    37    38   ar
    33    38    39   ar
    34     7     8   ar
    35     8     9   ar
    36     9    10   ar
    37    10    11    2
    38    11     2    1
    39    19    14    1
    40    10     5   ar
    41    34    28   ar
    42    39    35   ar
    43    12    13    1
