@<TRIPOS>MOLECULE
*****
 20 21 0 0 0
SMALL
GASTEIGER

@<TRIPOS>ATOM
      1 C          65.5243   92.1118   13.3193 C.ar    1  UNL1        0.0954
      2 S          65.4099   91.1963   14.5020 S.2     1  UNL1       -0.0812
      3 C          64.4468   90.1017   14.1495 C.ar    1  UNL1        0.0309
      4 C          63.9659   90.3406   12.7490 C.ar    1  UNL1        0.0212
      5 C          64.6318   91.5829   12.2358 C.ar    1  UNL1        0.0525
      6 N          64.4390   92.1898   10.8776 N.pl3   1  UNL1       -0.3565
      7 H          63.8283   91.7667   10.2316 H       1  UNL1        0.1424
      8 H          64.9232   93.0111   10.6323 H       1  UNL1        0.1424
      9 C          64.0366   88.9673   15.0412 C.ar    1  UNL1        0.0062
     10 C          63.2920   89.2447   16.3134 C.ar    1  UNL1        0.0028
     11 C          62.8819   88.1103   17.2049 C.ar    1  UNL1        0.0297
     12 C          63.2164   86.6985   16.8243 C.ar    1  UNL1        0.1401
     13 F          62.8062   85.5641   17.7159 F       1  UNL1       -0.2042
     14 C          63.9610   86.4211   15.5521 C.ar    1  UNL1        0.0297
     15 C          64.3711   87.5554   14.6605 C.ar    1  UNL1        0.0028
     16 N          66.7636   94.0751   14.4852 N.am    1  UNL1       -0.3249
     17 C          66.3807   93.3403   13.2348 C.2     1  UNL1        0.2500
     18 O          66.8541   93.8341   11.8999 O.2     1  UNL1       -0.2698
     19 H          67.3257   94.8814   14.4297 H       1  UNL1        0.1453
     20 H          66.4529   93.7510   15.3613 H       1  UNL1        0.1453
@<TRIPOS>BOND
     1    16    17   am
     2    17    18    2
     3    17     1    1
     4     1     2   ar
     5     2     3   ar
     6     3     9    1
     7     9    10   ar
     8    10    11   ar
     9    11    12   ar
    10    12    13    1
    11    12    14   ar
    12    14    15   ar
    13     3     4   ar
    14     4     5   ar
    15     5     6    1
    16     5     1   ar
    17    15     9   ar
    18    16    19    1
    19    16    20    1
    20     6     7    1
    21     6     8    1
@<TRIPOS>MOLECULE
*****
 20 21 0 0 0
SMALL
GASTEIGER

@<TRIPOS>ATOM
      1 C          60.5284   87.4664    8.8153 C.ar    1  UNL1        0.0954
      2 S          60.9878   86.0814    9.1628 S.2     1  UNL1       -0.0812
      3 C          62.0094   86.1924   10.2555 C.ar    1  UNL1        0.0309
      4 C          62.1813   87.6460   10.5835 C.ar    1  UNL1        0.0212
      5 C          61.2661   88.4333    9.6934 C.ar    1  UNL1        0.0525
      6 N          61.1149   89.9257    9.6831 N.pl3   1  UNL1       -0.3565
      7 H          61.6460   90.4785   10.3009 H       1  UNL1        0.1424
      8 H          60.4847   90.3523    9.0586 H       1  UNL1        0.1424
      9 C          62.7322   85.0502   10.9062 C.ar    1  UNL1        0.0062
     10 C          62.6758   84.8778   12.3951 C.ar    1  UNL1        0.0028
     11 C          63.3985   83.7357   13.0456 C.ar    1  UNL1        0.0297
     12 C          64.1776   82.7661   12.2072 C.ar    1  UNL1        0.1401
     13 F          64.9003   81.6239   12.8578 F       1  UNL1       -0.2042
     14 C          64.2339   82.9386   10.7183 C.ar    1  UNL1        0.0297
     15 C          63.5112   84.0806   10.0677 C.ar    1  UNL1        0.0028
     16 N          58.5221   86.7935    7.3079 N.am    1  UNL1       -0.3249
     17 C          59.5102   87.8220    7.7729 C.2     1  UNL1        0.2500
     18 O          59.4799   89.2060    7.1954 O.2     1  UNL1       -0.2698
     19 H          57.8538   87.0269    6.6237 H       1  UNL1        0.1453
     20 H          58.5420   85.8851    7.6869 H       1  UNL1        0.1453
@<TRIPOS>BOND
     1    16    17   am
     2    17    18    2
     3    17     1    1
     4     1     2   ar
     5     2     3   ar
     6     3     9    1
     7     9    10   ar
     8    10    11   ar
     9    11    12   ar
    10    12    13    1
    11    12    14   ar
    12    14    15   ar
    13     3     4   ar
    14     4     5   ar
    15     5     6    1
    16     5     1   ar
    17    15     9   ar
    18    16    19    1
    19    16    20    1
    20     6     7    1
    21     6     8    1
@<TRIPOS>MOLECULE
*****
 20 21 0 0 0
SMALL
GASTEIGER

@<TRIPOS>ATOM
      1 C          63.6892   84.3336   13.2023 C.ar    1  UNL1        0.0954
      2 S          62.7552   85.3959   12.7031 S.2     1  UNL1       -0.0812
      3 C          62.5037   85.1445   11.2458 C.ar    1  UNL1        0.0309
      4 C          63.2823   83.9269   10.8444 C.ar    1  UNL1        0.0212
      5 C          64.0150   83.4257   12.0535 C.ar    1  UNL1        0.0525
      6 N          64.9153   82.2271   12.1048 N.pl3   1  UNL1       -0.3565
      7 H          65.0678   81.6908   11.2934 H       1  UNL1        0.1424
      8 H          65.3538   81.9766   12.9500 H       1  UNL1        0.1424
      9 C          61.6274   85.9665   10.3477 C.ar    1  UNL1        0.0062
     10 C          61.5199   85.6283    8.8903 C.ar    1  UNL1        0.0028
     11 C          60.6437   86.4502    7.9923 C.ar    1  UNL1        0.0297
     12 C          59.8750   87.6105    8.5516 C.ar    1  UNL1        0.1401
     13 F          58.9987   88.4325    7.6535 F       1  UNL1       -0.2042
     14 C          59.9825   87.9488   10.0090 C.ar    1  UNL1        0.0297
     15 C          60.8587   87.1268   10.9070 C.ar    1  UNL1        0.0028
     16 N          64.7850   85.3958   15.3049 N.am    1  UNL1       -0.3249
     17 C          64.2067   84.2023   14.6040 C.2     1  UNL1        0.2500
     18 O          64.1458   82.8775   15.3049 O.2     1  UNL1       -0.2698
     19 H          65.1246   85.3096   16.2250 H       1  UNL1        0.1453
     20 H          64.8250   86.2653   14.8449 H       1  UNL1        0.1453
@<TRIPOS>BOND
     1    16    17   am
     2    17    18    2
     3    17     1    1
     4     1     2   ar
     5     2     3   ar
     6     3     9    1
     7     9    10   ar
     8    10    11   ar
     9    11    12   ar
    10    12    13    1
    11    12    14   ar
    12    14    15   ar
    13     3     4   ar
    14     4     5   ar
    15     5     6    1
    16     5     1   ar
    17    15     9   ar
    18    16    19    1
    19    16    20    1
    20     6     7    1
    21     6     8    1
@<TRIPOS>MOLECULE
*****
 20 21 0 0 0
SMALL
GASTEIGER

@<TRIPOS>ATOM
      1 C          61.2380   88.5130   10.0043 C.ar    1  UNL1        0.0954
      2 S          62.1336   87.6485   10.8412 S.2     1  UNL1       -0.0812
      3 C          61.9465   86.2262   10.4030 C.ar    1  UNL1        0.0309
      4 C          60.9353   86.2116    9.2952 C.ar    1  UNL1        0.0212
      5 C          60.4974   87.6250    9.0487 C.ar    1  UNL1        0.0525
      6 N          59.4950   88.0718    8.0263 N.pl3   1  UNL1       -0.3565
      7 H          59.0597   87.4100    7.4417 H       1  UNL1        0.1424
      8 H          59.2723   89.0269    7.9398 H       1  UNL1        0.1424
      9 C          62.6475   85.0286   10.9727 C.ar    1  UNL1        0.0062
     10 C          62.5769   84.7479   12.4445 C.ar    1  UNL1        0.0028
     11 C          63.2779   83.5504   13.0140 C.ar    1  UNL1        0.0297
     12 C          64.0496   82.6336   12.1118 C.ar    1  UNL1        0.1401
     13 F          64.7507   81.4360   12.6815 F       1  UNL1       -0.2042
     14 C          64.1203   82.9143   10.6401 C.ar    1  UNL1        0.0297
     15 C          63.4193   84.1118   10.0705 C.ar    1  UNL1        0.0028
     16 N          62.3275   90.8715   10.0311 N.am    1  UNL1       -0.3249
     17 C          61.1062   90.0038   10.1051 C.2     1  UNL1        0.2500
     18 O          59.7530   90.6269   10.2799 O.2     1  UNL1       -0.2698
     19 H          62.2410   91.8499   10.0972 H       1  UNL1        0.1453
     20 H          63.2157   90.4625    9.9164 H       1  UNL1        0.1453
@<TRIPOS>BOND
     1    16    17   am
     2    17    18    2
     3    17     1    1
     4     1     2   ar
     5     2     3   ar
     6     3     9    1
     7     9    10   ar
     8    10    11   ar
     9    11    12   ar
    10    12    13    1
    11    12    14   ar
    12    14    15   ar
    13     3     4   ar
    14     4     5   ar
    15     5     6    1
    16     5     1   ar
    17    15     9   ar
    18    16    19    1
    19    16    20    1
    20     6     7    1
    21     6     8    1
@<TRIPOS>MOLECULE
*****
 20 21 0 0 0
SMALL
GASTEIGER

@<TRIPOS>ATOM
      1 C          64.0821   91.3712   11.6310 C.ar    1  UNL1        0.0954
      2 S          63.3101   90.8599   10.4509 S.2     1  UNL1       -0.0812
      3 C          62.6106   89.5993   10.8653 C.ar    1  UNL1        0.0309
      4 C          62.9504   89.3315   12.3016 C.ar    1  UNL1        0.0212
      5 C          63.8597   90.4265   12.7748 C.ar    1  UNL1        0.0525
      6 N          64.4442   90.5544   14.1503 N.pl3   1  UNL1       -0.3565
      7 H          64.2384   89.8799   14.8373 H       1  UNL1        0.1424
      8 H          65.0335   91.3129   14.3662 H       1  UNL1        0.1424
      9 C          61.7267   88.7549    9.9961 C.ar    1  UNL1        0.0062
     10 C          61.9580   87.2757    9.9035 C.ar    1  UNL1        0.0028
     11 C          61.0741   86.4314    9.0343 C.ar    1  UNL1        0.0297
     12 C          59.9588   87.0661    8.2576 C.ar    1  UNL1        0.1401
     13 F          59.0748   86.2216    7.3883 F       1  UNL1       -0.2042
     14 C          59.7274   88.5452    8.3502 C.ar    1  UNL1        0.0297
     15 C          60.6114   89.3896    9.2194 C.ar    1  UNL1        0.0028
     16 N          65.1872   93.3725   10.3967 N.am    1  UNL1       -0.3249
     17 C          64.9279   92.6096   11.6619 C.2     1  UNL1        0.2500
     18 O          65.5143   93.0851   12.9580 O.2     1  UNL1       -0.2698
     19 H          65.7423   94.1853   10.4170 H       1  UNL1        0.1453
     20 H          64.8023   93.0604    9.5460 H       1  UNL1        0.1453
@<TRIPOS>BOND
     1    16    17   am
     2    17    18    2
     3    17     1    1
     4     1     2   ar
     5     2     3   ar
     6     3     9    1
     7     9    10   ar
     8    10    11   ar
     9    11    12   ar
    10    12    13    1
    11    12    14   ar
    12    14    15   ar
    13     3     4   ar
    14     4     5   ar
    15     5     6    1
    16     5     1   ar
    17    15     9   ar
    18    16    19    1
    19    16    20    1
    20     6     7    1
    21     6     8    1
@<TRIPOS>MOLECULE
*****
 20 21 0 0 0
SMALL
GASTEIGER

@<TRIPOS>ATOM
      1 C          63.2427   82.8595   13.0258 C.ar    1  UNL1        0.0954
      2 S          62.6028   83.6021   11.8904 S.2     1  UNL1       -0.0812
      3 C          62.7376   85.0710   12.1628 C.ar    1  UNL1        0.0309
      4 C          63.4608   85.2363   13.4664 C.ar    1  UNL1        0.0212
      5 C          63.7730   83.8696   13.9999 C.ar    1  UNL1        0.0525
      6 N          64.4896   83.5661   15.2822 N.pl3   1  UNL1       -0.3565
      7 H          64.8014   84.3015   15.8578 H       1  UNL1        0.1424
      8 H          64.6482   82.6316   15.5483 H       1  UNL1        0.1424
      9 C          62.2370   86.1800   11.2853 C.ar    1  UNL1        0.0062
     10 C          61.3016   85.8761   10.1528 C.ar    1  UNL1        0.0028
     11 C          60.8011   86.9850    9.2755 C.ar    1  UNL1        0.0297
     12 C          61.2360   88.3978    9.5307 C.ar    1  UNL1        0.1401
     13 F          60.7354   89.5067    8.6532 F       1  UNL1       -0.2042
     14 C          62.1714   88.7016   10.6632 C.ar    1  UNL1        0.0297
     15 C          62.6719   87.5927   11.5405 C.ar    1  UNL1        0.0028
     16 N          62.8284   80.4813   12.0655 N.am    1  UNL1       -0.3249
     17 C          63.3360   81.3688   13.1631 C.2     1  UNL1        0.2500
     18 O          63.9369   80.7655   14.3980 O.2     1  UNL1       -0.2698
     19 H          62.8896   79.5028   12.1556 H       1  UNL1        0.1453
     20 H          62.4340   80.8773   11.2550 H       1  UNL1        0.1453
@<TRIPOS>BOND
     1    16    17   am
     2    17    18    2
     3    17     1    1
     4     1     2   ar
     5     2     3   ar
     6     3     9    1
     7     9    10   ar
     8    10    11   ar
     9    11    12   ar
    10    12    13    1
    11    12    14   ar
    12    14    15   ar
    13     3     4   ar
    14     4     5   ar
    15     5     6    1
    16     5     1   ar
    17    15     9   ar
    18    16    19    1
    19    16    20    1
    20     6     7    1
    21     6     8    1
@<TRIPOS>MOLECULE
*****
 20 21 0 0 0
SMALL
GASTEIGER

@<TRIPOS>ATOM
      1 C          61.8365   88.5138   10.9069 C.ar    1  UNL1        0.0954
      2 S          62.8751   88.8912   11.9213 S.2     1  UNL1       -0.0812
      3 C          63.2392   90.3293   11.6989 C.ar    1  UNL1        0.0309
      4 C          62.4257   90.8407   10.5471 C.ar    1  UNL1        0.0212
      5 C          61.5588   89.7187   10.0576 C.ar    1  UNL1        0.0525
      6 N          60.5851   89.7891    8.9187 N.pl3   1  UNL1       -0.3565
      7 H          60.4726   90.6296    8.4186 H       1  UNL1        0.1424
      8 H          60.0586   88.9948    8.6714 H       1  UNL1        0.1424
      9 C          64.2410   91.1176   12.4896 C.ar    1  UNL1        0.0062
     10 C          64.9892   92.2443   11.8412 C.ar    1  UNL1        0.0028
     11 C          65.9910   93.0325   12.6319 C.ar    1  UNL1        0.0297
     12 C          66.2444   92.6940   14.0710 C.ar    1  UNL1        0.1401
     13 F          67.2462   93.4823   14.8617 F       1  UNL1       -0.2042
     14 C          65.4961   91.5673   14.7195 C.ar    1  UNL1        0.0297
     15 C          64.4944   90.7791   13.9288 C.ar    1  UNL1        0.0028
     16 N          61.5558   86.0578   11.7063 N.am    1  UNL1       -0.3249
     17 C          61.1893   87.1679   10.7665 C.2     1  UNL1        0.2500
     18 O          60.1757   86.9322    9.6862 O.2     1  UNL1       -0.2698
     19 H          61.1310   85.1744   11.6142 H       1  UNL1        0.1453
     20 H          62.2211   86.2125   12.4154 H       1  UNL1        0.1453
@<TRIPOS>BOND
     1    16    17   am
     2    17    18    2
     3    17     1    1
     4     1     2   ar
     5     2     3   ar
     6     3     9    1
     7     9    10   ar
     8    10    11   ar
     9    11    12   ar
    10    12    13    1
    11    12    14   ar
    12    14    15   ar
    13     3     4   ar
    14     4     5   ar
    15     5     6    1
    16     5     1   ar
    17    15     9   ar
    18    16    19    1
    19    16    20    1
    20     6     7    1
    21     6     8    1
@<TRIPOS>MOLECULE
*****
 20 21 0 0 0
SMALL
GASTEIGER

@<TRIPOS>ATOM
      1 C          61.7843   89.3954   11.8494 C.ar    1  UNL1        0.0954
      2 S          62.3658   88.3658   10.9264 S.2     1  UNL1       -0.0812
      3 C          61.2665   87.8683   10.0354 C.ar    1  UNL1        0.0309
      4 C          60.0055   88.5904   10.4076 C.ar    1  UNL1        0.0212
      5 C          60.3255   89.5341   11.5287 C.ar    1  UNL1        0.0525
      6 N          59.3569   90.4550   12.2097 N.pl3   1  UNL1       -0.3565
      7 H          58.4141   90.4744   11.9266 H       1  UNL1        0.1424
      8 H          59.6638   91.0400   12.9396 H       1  UNL1        0.1424
      9 C          61.4040   86.8308    8.9607 C.ar    1  UNL1        0.0062
     10 C          60.2533   86.5459    8.0416 C.ar    1  UNL1        0.0028
     11 C          60.3909   85.5085    6.9671 C.ar    1  UNL1        0.0297
     12 C          61.6791   84.7560    6.8115 C.ar    1  UNL1        0.1401
     13 F          61.8167   83.7185    5.7369 F       1  UNL1       -0.2042
     14 C          62.8298   85.0409    7.7306 C.ar    1  UNL1        0.0297
     15 C          62.6923   86.0784    8.8052 C.ar    1  UNL1        0.0028
     16 N          63.4556   91.2683   12.5193 N.am    1  UNL1       -0.3249
     17 C          62.5305   90.1531   12.9072 C.2     1  UNL1        0.2500
     18 O          62.3516   89.7956   14.3529 O.2     1  UNL1       -0.2698
     19 H          63.9454   91.7656   13.2136 H       1  UNL1        0.1453
     20 H          63.5731   91.5030   11.5704 H       1  UNL1        0.1453
@<TRIPOS>BOND
     1    16    17   am
     2    17    18    2
     3    17     1    1
     4     1     2   ar
     5     2     3   ar
     6     3     9    1
     7     9    10   ar
     8    10    11   ar
     9    11    12   ar
    10    12    13    1
    11    12    14   ar
    12    14    15   ar
    13     3     4   ar
    14     4     5   ar
    15     5     6    1
    16     5     1   ar
    17    15     9   ar
    18    16    19    1
    19    16    20    1
    20     6     7    1
    21     6     8    1
@<TRIPOS>MOLECULE
*****
 20 21 0 0 0
SMALL
GASTEIGER

@<TRIPOS>ATOM
      1 C          66.7657   94.3516    9.9940 C.ar    1  UNL1        0.0954
      2 S          65.9187   94.1728   11.2189 S.2     1  UNL1       -0.0812
      3 C          66.1726   92.7975   11.7614 C.ar    1  UNL1        0.0309
      4 C          67.1766   92.1264   10.8717 C.ar    1  UNL1        0.0212
      5 C          67.5431   93.0868    9.7794 C.ar    1  UNL1        0.0525
      6 N          68.5163   92.8280    8.6676 N.pl3   1  UNL1       -0.3565
      7 H          68.9800   91.9613    8.6111 H       1  UNL1        0.1424
      8 H          68.6913   93.5247    7.9944 H       1  UNL1        0.1424
      9 C          65.5346   92.1986   12.9797 C.ar    1  UNL1        0.0062
     10 C          66.0807   92.5091   14.3418 C.ar    1  UNL1        0.0028
     11 C          65.4426   91.9102   15.5600 C.ar    1  UNL1        0.0297
     12 C          64.2584   91.0008   15.4162 C.ar    1  UNL1        0.1401
     13 F          63.6204   90.4019   16.6345 F       1  UNL1       -0.2042
     14 C          63.7123   90.6903   14.0541 C.ar    1  UNL1        0.0297
     15 C          64.3504   91.2892   12.8359 C.ar    1  UNL1        0.0028
     16 N          66.3129   95.5340    7.7253 N.am    1  UNL1       -0.3249
     17 C          66.8249   95.5795    9.1345 C.2     1  UNL1        0.2500
     18 O          67.3961   96.8529    9.6842 O.2     1  UNL1       -0.2698
     19 H          66.3518   96.3399    7.1612 H       1  UNL1        0.1453
     20 H          65.9380   94.6982    7.3645 H       1  UNL1        0.1453
@<TRIPOS>BOND
     1    16    17   am
     2    17    18    2
     3    17     1    1
     4     1     2   ar
     5     2     3   ar
     6     3     9    1
     7     9    10   ar
     8    10    11   ar
     9    11    12   ar
    10    12    13    1
    11    12    14   ar
    12    14    15   ar
    13     3     4   ar
    14     4     5   ar
    15     5     6    1
    16     5     1   ar
    17    15     9   ar
    18    16    19    1
    19    16    20    1
    20     6     7    1
    21     6     8    1
