@<TRIPOS>MOLECULE
*****
 34 36 0 0 0
SMALL
GASTEIGER

@<TRIPOS>ATOM
      1 C          60.5512   89.0391   11.2036 C.2     1  UNL1        0.2271
      2 O          60.1204   88.4086   12.4947 O.2     1  UNL1       -0.2748
      3 N          61.7820   89.8955   11.1613 N.am    1  UNL1       -0.2760
      4 C          62.5819   90.1214   12.4099 C.3     1  UNL1        0.1149
      5 C          63.8126   90.9778   12.3675 C.3     1  UNL1        0.1152
      6 N          64.2435   91.6083   11.0765 N.am    1  UNL1       -0.2726
      7 C          65.4742   92.4648   11.0341 C.2     1  UNL1        0.2491
      8 O          65.9051   93.0953    9.7431 O.2     1  UNL1       -0.2699
      9 C          63.4436   91.3824    9.8278 C.3     1  UNL1        0.1152
     10 C          62.2129   90.5260    9.8702 C.3     1  UNL1        0.1149
     11 C          66.2741   92.6907   12.2828 C.ar    1  UNL1        0.0536
     12 C          67.2595   91.6563   12.7397 C.ar    1  UNL1        0.0046
     13 C          68.0594   91.8822   13.9884 C.ar    1  UNL1        0.0013
     14 C          67.8738   93.1426   14.7802 C.ar    1  UNL1        0.0140
     15 C          66.8883   94.1771   14.3233 C.ar    1  UNL1        0.0013
     16 C          66.0885   93.9512   13.0746 C.ar    1  UNL1        0.0046
     17 C          68.6736   93.3685   16.0288 C.2     1  UNL1        0.0729
     18 O          68.9012   94.7633   16.5317 O.co2   1  UNL1       -0.5446
     19 O          69.2459   92.1997   16.7747 O.co2   1  UNL1       -0.5446
     20 C          59.7514   88.8131    9.9550 C.3     1  UNL1        0.1010
     21 N          58.8765   86.8194    8.5373 N.3     1  UNL1       -0.3215
     22 C          60.0202   87.6107    9.0994 C.3     1  UNL1        0.0644
     23 H          57.9950   87.2373    8.8353 H       1  UNL1        0.1188
     24 H          58.9289   85.8586    8.8759 H       1  UNL1        0.1188
     25 C          61.4325   87.1996    8.8058 C.3     1  UNL1        0.0447
     26 C          62.0607   86.0739    9.5728 C.ar    1  UNL1        0.0090
     27 C          61.8377   85.9576   11.0516 C.ar    1  UNL1        0.0300
     28 C          62.4659   84.8319   11.8185 C.ar    1  UNL1        0.1672
     29 F          62.2429   84.7156   13.2972 F       1  UNL1       -0.2018
     30 C          63.3172   83.8226   11.1067 C.ar    1  UNL1        0.1696
     31 F          63.9454   82.6969   11.8736 F       1  UNL1       -0.2017
     32 C          63.5402   83.9389    9.6280 C.ar    1  UNL1        0.0612
     33 C          62.9120   85.0646    8.8610 C.ar    1  UNL1        0.1386
     34 F          63.1350   85.1810    7.3822 F       1  UNL1       -0.2044
@<TRIPOS>UNITY_ATOM_ATTR
18 1
charge -1
@<TRIPOS>BOND
     1    22    21    1
     2    22    20    1
     3    20     1    1
     4     1     2    2
     5     1     3   am
     6     3     4    1
     7     4     5    1
     8     5     6    1
     9     6     7   am
    10     7     8    2
    11     7    11    1
    12    11    12   ar
    13    12    13   ar
    14    13    14   ar
    15    14    17    1
    16    17    18   ar
    17    17    19   ar
    18    14    15   ar
    19    15    16   ar
    20     6     9    1
    21     9    10    1
    22    22    25    1
    23    25    26    1
    24    26    27   ar
    25    27    28   ar
    26    28    29    1
    27    28    30   ar
    28    30    31    1
    29    30    32   ar
    30    32    33   ar
    31    33    34    1
    32    10     3    1
    33    33    26   ar
    34    16    11   ar
    35    21    23    1
    36    21    24    1
@<TRIPOS>MOLECULE
*****
 34 36 0 0 0
SMALL
GASTEIGER

@<TRIPOS>ATOM
      1 C          63.3367   90.4905   11.9080 C.2     1  UNL1        0.2271
      2 O          62.7799   90.4455   10.5159 O.2     1  UNL1       -0.2748
      3 N          63.5215   89.2197   12.6833 N.am    1  UNL1       -0.2760
      4 C          63.1495   87.9040   12.0664 C.3     1  UNL1        0.1149
      5 C          63.3343   86.6333   12.8417 C.3     1  UNL1        0.1152
      6 N          63.8911   86.6782   14.2338 N.am    1  UNL1       -0.2726
      7 C          64.0759   85.4074   15.0091 C.2     1  UNL1        0.2491
      8 O          64.6327   85.4524   16.4011 O.2     1  UNL1       -0.2699
      9 C          64.2632   87.9939   14.8506 C.3     1  UNL1        0.1152
     10 C          64.0784   89.2646   14.0753 C.3     1  UNL1        0.1149
     11 C          63.7039   84.0917   14.3922 C.ar    1  UNL1        0.0536
     12 C          64.5801   83.4833   13.3377 C.ar    1  UNL1        0.0046
     13 C          64.2080   82.1675   12.7209 C.ar    1  UNL1        0.0013
     14 C          62.9597   81.4603   13.1586 C.ar    1  UNL1        0.0140
     15 C          62.0835   82.0688   14.2131 C.ar    1  UNL1        0.0013
     16 C          62.4555   83.3845   14.8299 C.ar    1  UNL1        0.0046
     17 C          62.5877   80.1446   12.5418 C.2     1  UNL1        0.0729
     18 O          62.8383   79.9027   11.0827 O.co2   1  UNL1       -0.5446
     19 O          61.9649   79.0708   13.3839 O.co2   1  UNL1       -0.5446
     20 C          63.7088   91.8062   12.5248 C.3     1  UNL1        0.1010
     21 N          65.6270   92.7346   14.0110 N.3     1  UNL1       -0.3215
     22 C          65.1532   92.1682   12.7053 C.3     1  UNL1        0.0644
     23 H          64.8404   92.8046   14.6566 H       1  UNL1        0.1188
     24 H          66.0230   93.6616   13.8557 H       1  UNL1        0.1188
     25 C          66.1239   91.9637   11.5802 C.3     1  UNL1        0.0447
     26 C          66.5043   93.1165   10.6991 C.ar    1  UNL1        0.0090
     27 C          65.7497   94.4098   10.7886 C.ar    1  UNL1        0.0300
     28 C          66.1301   95.5626    9.9075 C.ar    1  UNL1        0.1672
     29 F          65.3754   96.8558    9.9970 F       1  UNL1       -0.2018
     30 C          67.2651   95.4222    8.9369 C.ar    1  UNL1        0.1696
     31 F          67.6455   96.5750    8.0559 F       1  UNL1       -0.2017
     32 C          68.0197   94.1290    8.8475 C.ar    1  UNL1        0.0612
     33 C          67.6393   92.9761    9.7286 C.ar    1  UNL1        0.1386
     34 F          68.3940   91.6829    9.6391 F       1  UNL1       -0.2044
@<TRIPOS>UNITY_ATOM_ATTR
18 1
charge -1
@<TRIPOS>BOND
     1    22    21    1
     2    22    20    1
     3    20     1    1
     4     1     2    2
     5     1     3   am
     6     3     4    1
     7     4     5    1
     8     5     6    1
     9     6     7   am
    10     7     8    2
    11     7    11    1
    12    11    12   ar
    13    12    13   ar
    14    13    14   ar
    15    14    17    1
    16    17    18   ar
    17    17    19   ar
    18    14    15   ar
    19    15    16   ar
    20     6     9    1
    21     9    10    1
    22    22    25    1
    23    25    26    1
    24    26    27   ar
    25    27    28   ar
    26    28    29    1
    27    28    30   ar
    28    30    31    1
    29    30    32   ar
    30    32    33   ar
    31    33    34    1
    32    10     3    1
    33    33    26   ar
    34    16    11   ar
    35    21    23    1
    36    21    24    1
@<TRIPOS>MOLECULE
*****
 34 36 0 0 0
SMALL
GASTEIGER

@<TRIPOS>ATOM
      1 C          63.9069   90.8184   12.5605 C.2     1  UNL1        0.2271
      2 O          63.6284   90.8680   11.0874 O.2     1  UNL1       -0.2748
      3 N          63.8897   89.5040   13.2831 N.am    1  UNL1       -0.2760
      4 C          63.5941   88.2393   12.5327 C.3     1  UNL1        0.1149
      5 C          63.5769   86.9251   13.2554 C.3     1  UNL1        0.1152
      6 N          63.8554   86.8754   14.7285 N.am    1  UNL1       -0.2726
      7 C          63.8382   85.5611   15.4512 C.2     1  UNL1        0.2491
      8 O          64.1167   85.5115   16.9243 O.2     1  UNL1       -0.2699
      9 C          64.1510   88.1401   15.4789 C.3     1  UNL1        0.1152
     10 C          64.1682   89.4544   14.7562 C.3     1  UNL1        0.1149
     11 C          63.5426   84.2964   14.7008 C.ar    1  UNL1        0.0536
     12 C          62.2684   83.5495   14.9624 C.ar    1  UNL1        0.0046
     13 C          61.9728   82.2847   14.2119 C.ar    1  UNL1        0.0013
     14 C          62.9514   81.7670   13.1999 C.ar    1  UNL1        0.0140
     15 C          64.2256   82.5139   12.9383 C.ar    1  UNL1        0.0013
     16 C          64.5212   83.7786   13.6887 C.ar    1  UNL1        0.0046
     17 C          62.6558   80.5023   12.4495 C.2     1  UNL1        0.0729
     18 O          62.1947   79.2815   13.1893 O.co2   1  UNL1       -0.5446
     19 O          62.8212   80.4583   10.9593 O.co2   1  UNL1       -0.5446
     20 C          64.2025   92.0831   13.3109 C.3     1  UNL1        0.1010
     21 N          65.8331   93.0368   15.0945 N.3     1  UNL1       -0.3215
     22 C          65.6009   92.3738   13.7692 C.3     1  UNL1        0.0644
     23 H          64.9366   93.2173   15.5461 H       1  UNL1        0.1188
     24 H          66.3256   93.9186   14.9519 H       1  UNL1        0.1188
     25 C          66.7669   92.0015   12.9023 C.3     1  UNL1        0.0447
     26 C          67.0486   92.7778   11.6501 C.ar    1  UNL1        0.0090
     27 C          67.7612   92.1214   10.5049 C.ar    1  UNL1        0.0300
     28 C          68.0428   92.8977    9.2528 C.ar    1  UNL1        0.1672
     29 F          68.7554   92.2413    8.1077 F       1  UNL1       -0.2018
     30 C          67.6119   94.3305    9.1457 C.ar    1  UNL1        0.1696
     31 F          67.8935   95.1068    7.8936 F       1  UNL1       -0.2017
     32 C          66.8993   94.9869   10.2908 C.ar    1  UNL1        0.0612
     33 C          66.6176   94.2106   11.5431 C.ar    1  UNL1        0.1386
     34 F          65.9050   94.8670   12.6881 F       1  UNL1       -0.2044
@<TRIPOS>UNITY_ATOM_ATTR
18 1
charge -1
@<TRIPOS>BOND
     1    22    21    1
     2    22    20    1
     3    20     1    1
     4     1     2    2
     5     1     3   am
     6     3     4    1
     7     4     5    1
     8     5     6    1
     9     6     7   am
    10     7     8    2
    11     7    11    1
    12    11    12   ar
    13    12    13   ar
    14    13    14   ar
    15    14    17    1
    16    17    18   ar
    17    17    19   ar
    18    14    15   ar
    19    15    16   ar
    20     6     9    1
    21     9    10    1
    22    22    25    1
    23    25    26    1
    24    26    27   ar
    25    27    28   ar
    26    28    29    1
    27    28    30   ar
    28    30    31    1
    29    30    32   ar
    30    32    33   ar
    31    33    34    1
    32    10     3    1
    33    33    26   ar
    34    16    11   ar
    35    21    23    1
    36    21    24    1
@<TRIPOS>MOLECULE
*****
 34 36 0 0 0
SMALL
GASTEIGER

@<TRIPOS>ATOM
      1 C          64.8397   90.7370   14.2072 C.2     1  UNL1        0.2271
      2 O          65.6481   90.5198   15.4519 O.2     1  UNL1       -0.2748
      3 N          64.1987   89.5701   13.5161 N.am    1  UNL1       -0.2760
      4 C          64.3661   88.1861   14.0696 C.3     1  UNL1        0.1149
      5 C          63.7252   87.0193   13.3785 C.3     1  UNL1        0.1152
      6 N          62.9167   87.2366   12.1338 N.am    1  UNL1       -0.2726
      7 C          62.2757   86.0697   11.4427 C.2     1  UNL1        0.2491
      8 O          61.4673   86.2869   10.1980 O.2     1  UNL1       -0.2699
      9 C          62.7492   88.6206   11.5803 C.3     1  UNL1        0.1152
     10 C          63.3902   89.7873   12.2714 C.3     1  UNL1        0.1149
     11 C          62.4432   84.6857   11.9962 C.ar    1  UNL1        0.0536
     12 C          62.2568   84.4372   13.4637 C.ar    1  UNL1        0.0046
     13 C          62.4243   83.0531   14.0172 C.ar    1  UNL1        0.0013
     14 C          62.7782   81.9176   13.1032 C.ar    1  UNL1        0.0140
     15 C          62.9646   82.1661   11.6358 C.ar    1  UNL1        0.0013
     16 C          62.7971   83.5501   11.0822 C.ar    1  UNL1        0.0046
     17 C          62.9457   80.5336   13.6568 C.2     1  UNL1        0.0729
     18 O          61.8749   79.5052   13.4420 O.co2   1  UNL1       -0.5446
     19 O          64.1839   80.1778   14.4251 O.co2   1  UNL1       -0.5446
     20 C          64.6722   92.1210   13.6537 C.3     1  UNL1        0.1010
     21 N          66.3246   94.0637   14.1493 N.3     1  UNL1       -0.3215
     22 C          65.8784   92.9287   13.2759 C.3     1  UNL1        0.0644
     23 H          65.6980   94.1431   14.9502 H       1  UNL1        0.1188
     24 H          66.3048   94.9322   13.6147 H       1  UNL1        0.1188
     25 C          66.6383   92.6015   12.0248 C.3     1  UNL1        0.0447
     26 C          66.6747   93.5830   10.8911 C.ar    1  UNL1        0.0090
     27 C          65.7067   94.7284   10.8593 C.ar    1  UNL1        0.0300
     28 C          65.7431   95.7099    9.7256 C.ar    1  UNL1        0.1672
     29 F          64.7751   96.8553    9.6939 F       1  UNL1       -0.2018
     30 C          66.7474   95.5460    8.6236 C.ar    1  UNL1        0.1696
     31 F          66.7838   96.5274    7.4898 F       1  UNL1       -0.2017
     32 C          67.7154   94.4005    8.6553 C.ar    1  UNL1        0.0612
     33 C          67.6790   93.4190    9.7890 C.ar    1  UNL1        0.1386
     34 F          68.6470   92.2736    9.8207 F       1  UNL1       -0.2044
@<TRIPOS>UNITY_ATOM_ATTR
18 1
charge -1
@<TRIPOS>BOND
     1    22    21    1
     2    22    20    1
     3    20     1    1
     4     1     2    2
     5     1     3   am
     6     3     4    1
     7     4     5    1
     8     5     6    1
     9     6     7   am
    10     7     8    2
    11     7    11    1
    12    11    12   ar
    13    12    13   ar
    14    13    14   ar
    15    14    17    1
    16    17    18   ar
    17    17    19   ar
    18    14    15   ar
    19    15    16   ar
    20     6     9    1
    21     9    10    1
    22    22    25    1
    23    25    26    1
    24    26    27   ar
    25    27    28   ar
    26    28    29    1
    27    28    30   ar
    28    30    31    1
    29    30    32   ar
    30    32    33   ar
    31    33    34    1
    32    10     3    1
    33    33    26   ar
    34    16    11   ar
    35    21    23    1
    36    21    24    1
@<TRIPOS>MOLECULE
*****
 34 36 0 0 0
SMALL
GASTEIGER

@<TRIPOS>ATOM
      1 C          63.1820   90.6324   11.3160 C.2     1  UNL1        0.2271
      2 O          62.5434   90.4895    9.9663 O.2     1  UNL1       -0.2748
      3 N          63.3985   89.4221   12.1753 N.am    1  UNL1       -0.2760
      4 C          62.9763   88.0689   11.6848 C.3     1  UNL1        0.1149
      5 C          63.1928   86.8586   12.5441 C.3     1  UNL1        0.1152
      6 N          63.8315   87.0015   13.8938 N.am    1  UNL1       -0.2726
      7 C          64.0480   85.7912   14.7530 C.2     1  UNL1        0.2491
      8 O          64.6866   85.9341   16.1027 O.2     1  UNL1       -0.2699
      9 C          64.2536   88.3547   14.3842 C.3     1  UNL1        0.1152
     10 C          64.0372   89.5650   13.5250 C.3     1  UNL1        0.1149
     11 C          63.6258   84.4380   14.2625 C.ar    1  UNL1        0.0536
     12 C          64.3143   83.8197   13.0820 C.ar    1  UNL1        0.0046
     13 C          63.8921   82.4664   12.5915 C.ar    1  UNL1        0.0013
     14 C          62.7814   81.7315   13.2816 C.ar    1  UNL1        0.0140
     15 C          62.0929   82.3498   14.4622 C.ar    1  UNL1        0.0013
     16 C          62.5151   83.7030   14.9526 C.ar    1  UNL1        0.0046
     17 C          62.3593   80.3783   12.7911 C.2     1  UNL1        0.0729
     18 O          61.4163   79.5451   13.6077 O.co2   1  UNL1       -0.5446
     19 O          62.8800   79.8582   11.4841 O.co2   1  UNL1       -0.5446
     20 C          63.6042   91.9856   11.8065 C.3     1  UNL1        0.1010
     21 N          64.7913   93.8653   10.4620 N.3     1  UNL1       -0.3215
     22 C          64.8629   92.6133   11.2851 C.3     1  UNL1        0.0644
     23 H          63.8169   94.1478   10.3568 H       1  UNL1        0.1188
     24 H          65.1961   93.6910    9.5421 H       1  UNL1        0.1188
     25 C          66.1930   91.9890   11.5868 C.3     1  UNL1        0.0447
     26 C          66.7561   92.0580   12.9753 C.ar    1  UNL1        0.0090
     27 C          65.8571   92.3709   14.1346 C.ar    1  UNL1        0.0300
     28 C          66.4203   92.4399   15.5231 C.ar    1  UNL1        0.1672
     29 F          65.5213   92.7527   16.6824 F       1  UNL1       -0.2018
     30 C          67.8825   92.1960   15.7524 C.ar    1  UNL1        0.1696
     31 F          68.4456   92.2649   17.1409 F       1  UNL1       -0.2017
     32 C          68.7815   91.8831   14.5932 C.ar    1  UNL1        0.0612
     33 C          68.2183   91.8141   13.2046 C.ar    1  UNL1        0.1386
     34 F          69.1173   91.5013   12.0454 F       1  UNL1       -0.2044
@<TRIPOS>UNITY_ATOM_ATTR
18 1
charge -1
@<TRIPOS>BOND
     1    22    21    1
     2    22    20    1
     3    20     1    1
     4     1     2    2
     5     1     3   am
     6     3     4    1
     7     4     5    1
     8     5     6    1
     9     6     7   am
    10     7     8    2
    11     7    11    1
    12    11    12   ar
    13    12    13   ar
    14    13    14   ar
    15    14    17    1
    16    17    18   ar
    17    17    19   ar
    18    14    15   ar
    19    15    16   ar
    20     6     9    1
    21     9    10    1
    22    22    25    1
    23    25    26    1
    24    26    27   ar
    25    27    28   ar
    26    28    29    1
    27    28    30   ar
    28    30    31    1
    29    30    32   ar
    30    32    33   ar
    31    33    34    1
    32    10     3    1
    33    33    26   ar
    34    16    11   ar
    35    21    23    1
    36    21    24    1
@<TRIPOS>MOLECULE
*****
 34 36 0 0 0
SMALL
GASTEIGER

@<TRIPOS>ATOM
      1 C          60.9293   89.5235    9.3061 C.2     1  UNL1        0.2271
      2 O          61.5956   90.1226    8.1031 O.2     1  UNL1       -0.2748
      3 N          61.5357   89.7027   10.6663 N.am    1  UNL1       -0.2760
      4 C          62.8083   90.4810   10.8236 C.3     1  UNL1        0.1149
      5 C          63.4146   90.6601   12.1838 C.3     1  UNL1        0.1152
      6 N          62.7483   90.0611   13.3867 N.am    1  UNL1       -0.2726
      7 C          63.3547   90.2403   14.7470 C.2     1  UNL1        0.2491
      8 O          62.6884   89.6412   15.9500 O.2     1  UNL1       -0.2699
      9 C          61.4757   89.2828   13.2295 C.3     1  UNL1        0.1152
     10 C          60.8694   89.1036   11.8693 C.3     1  UNL1        0.1149
     11 C          64.6273   91.0185   14.9042 C.ar    1  UNL1        0.0536
     12 C          64.8107   91.9258   16.0846 C.ar    1  UNL1        0.0046
     13 C          66.0834   92.7040   16.2418 C.ar    1  UNL1        0.0013
     14 C          67.1726   92.5751   15.2187 C.ar    1  UNL1        0.0140
     15 C          66.9892   91.6678   14.0383 C.ar    1  UNL1        0.0013
     16 C          65.7166   90.8896   13.8811 C.ar    1  UNL1        0.0046
     17 C          68.4452   93.3533   15.3759 C.2     1  UNL1        0.0729
     18 O          68.5062   94.5055   16.3345 O.co2   1  UNL1       -0.5446
     19 O          69.6568   92.9795   14.5745 O.co2   1  UNL1       -0.5446
     20 C          59.6567   88.7453    9.1488 C.3     1  UNL1        0.1010
     21 N          58.3654   86.7536    8.0925 N.3     1  UNL1       -0.3215
     22 C          59.6603   87.4447    8.4013 C.3     1  UNL1        0.0644
     23 H          57.5899   87.3038    8.4616 H       1  UNL1        0.1188
     24 H          58.3620   85.8292    8.5239 H       1  UNL1        0.1188
     25 C          60.9589   86.8355    7.9626 C.3     1  UNL1        0.0447
     26 C          61.7262   85.9502    8.8993 C.ar    1  UNL1        0.0090
     27 C          61.4496   85.9987   10.3728 C.ar    1  UNL1        0.0300
     28 C          62.2169   85.1133   11.3095 C.ar    1  UNL1        0.1672
     29 F          61.9403   85.1619   12.7829 F       1  UNL1       -0.2018
     30 C          63.2609   84.1795   10.7727 C.ar    1  UNL1        0.1696
     31 F          64.0282   83.2942   11.7094 F       1  UNL1       -0.2017
     32 C          63.5375   84.1309    9.2993 C.ar    1  UNL1        0.0612
     33 C          62.7701   85.0163    8.3625 C.ar    1  UNL1        0.1386
     34 F          63.0467   84.9678    6.8891 F       1  UNL1       -0.2044
@<TRIPOS>UNITY_ATOM_ATTR
18 1
charge -1
@<TRIPOS>BOND
     1    22    21    1
     2    22    20    1
     3    20     1    1
     4     1     2    2
     5     1     3   am
     6     3     4    1
     7     4     5    1
     8     5     6    1
     9     6     7   am
    10     7     8    2
    11     7    11    1
    12    11    12   ar
    13    12    13   ar
    14    13    14   ar
    15    14    17    1
    16    17    18   ar
    17    17    19   ar
    18    14    15   ar
    19    15    16   ar
    20     6     9    1
    21     9    10    1
    22    22    25    1
    23    25    26    1
    24    26    27   ar
    25    27    28   ar
    26    28    29    1
    27    28    30   ar
    28    30    31    1
    29    30    32   ar
    30    32    33   ar
    31    33    34    1
    32    10     3    1
    33    33    26   ar
    34    16    11   ar
    35    21    23    1
    36    21    24    1
@<TRIPOS>MOLECULE
*****
 34 36 0 0 0
SMALL
GASTEIGER

@<TRIPOS>ATOM
      1 C          59.4066   88.6666    7.3091 C.2     1  UNL1        0.2271
      2 O          58.6540   87.6942    6.4501 O.2     1  UNL1       -0.2748
      3 N          60.2340   88.1690    8.4571 N.am    1  UNL1       -0.2760
      4 C          60.3085   86.6991    8.7462 C.3     1  UNL1        0.1149
      5 C          61.1358   86.2015    9.8942 C.3     1  UNL1        0.1152
      6 N          61.8885   87.1739   10.7532 N.am    1  UNL1       -0.2726
      7 C          62.7158   86.6763   11.9013 C.2     1  UNL1        0.2491
      8 O          63.4685   87.6488   12.7603 O.2     1  UNL1       -0.2699
      9 C          61.8139   88.6439   10.4642 C.3     1  UNL1        0.1152
     10 C          60.9866   89.1414    9.3161 C.3     1  UNL1        0.1149
     11 C          62.7904   85.2064   12.1903 C.ar    1  UNL1        0.0536
     12 C          62.5617   84.7037   13.5850 C.ar    1  UNL1        0.0046
     13 C          62.6363   83.2336   13.8740 C.ar    1  UNL1        0.0013
     14 C          62.9396   82.2664   12.7684 C.ar    1  UNL1        0.0140
     15 C          63.1683   82.7690   11.3738 C.ar    1  UNL1        0.0013
     16 C          63.0937   84.2390   11.0847 C.ar    1  UNL1        0.0046
     17 C          63.0142   80.7964   13.0575 C.2     1  UNL1        0.0729
     18 O          62.6606   79.8033   11.9903 O.co2   1  UNL1       -0.5446
     19 O          63.4424   80.3195   14.4136 O.co2   1  UNL1       -0.5446
     20 C          59.3321   90.1366    7.0200 C.3     1  UNL1        0.1010
     21 N          58.4065   91.0653    4.7770 N.3     1  UNL1       -0.3215
     22 C          59.5672   90.6399    5.6266 C.3     1  UNL1        0.0644
     23 H          57.5397   90.9467    5.3015 H       1  UNL1        0.1188
     24 H          58.3746   90.4927    3.9335 H       1  UNL1        0.1188
     25 C          60.9630   90.7177    5.0829 C.3     1  UNL1        0.0447
     26 C          61.2667   91.6187    3.9227 C.ar    1  UNL1        0.0090
     27 C          60.2534   92.6288    3.4722 C.ar    1  UNL1        0.0300
     28 C          60.5572   93.5298    2.3121 C.ar    1  UNL1        0.1672
     29 F          59.5439   94.5399    1.8616 F       1  UNL1       -0.2018
     30 C          61.8742   93.4207    1.6024 C.ar    1  UNL1        0.1696
     31 F          62.1779   94.3216    0.4423 F       1  UNL1       -0.2017
     32 C          62.8874   92.4106    2.0529 C.ar    1  UNL1        0.0612
     33 C          62.5837   91.5095    3.2131 C.ar    1  UNL1        0.1386
     34 F          63.5969   90.4994    3.6635 F       1  UNL1       -0.2044
@<TRIPOS>UNITY_ATOM_ATTR
18 1
charge -1
@<TRIPOS>BOND
     1    22    21    1
     2    22    20    1
     3    20     1    1
     4     1     2    2
     5     1     3   am
     6     3     4    1
     7     4     5    1
     8     5     6    1
     9     6     7   am
    10     7     8    2
    11     7    11    1
    12    11    12   ar
    13    12    13   ar
    14    13    14   ar
    15    14    17    1
    16    17    18   ar
    17    17    19   ar
    18    14    15   ar
    19    15    16   ar
    20     6     9    1
    21     9    10    1
    22    22    25    1
    23    25    26    1
    24    26    27   ar
    25    27    28   ar
    26    28    29    1
    27    28    30   ar
    28    30    31    1
    29    30    32   ar
    30    32    33   ar
    31    33    34    1
    32    10     3    1
    33    33    26   ar
    34    16    11   ar
    35    21    23    1
    36    21    24    1
@<TRIPOS>MOLECULE
*****
 34 36 0 0 0
SMALL
GASTEIGER

@<TRIPOS>ATOM
      1 C          62.2820   89.6267   11.1394 C.2     1  UNL1        0.2271
      2 O          61.5923   89.7239    9.8109 O.2     1  UNL1       -0.2748
      3 N          62.6754   88.2854   11.6838 N.am    1  UNL1       -0.2760
      4 C          62.3793   87.0415   10.8997 C.3     1  UNL1        0.1149
      5 C          62.7727   85.7003   11.4440 C.3     1  UNL1        0.1152
      6 N          63.4624   85.6030   12.7725 N.am    1  UNL1       -0.2726
      7 C          63.8559   84.2618   13.3169 C.2     1  UNL1        0.2491
      8 O          64.5455   84.1645   14.6454 O.2     1  UNL1       -0.2699
      9 C          63.7586   86.8470   13.5567 C.3     1  UNL1        0.1152
     10 C          63.3651   88.1881   13.0123 C.3     1  UNL1        0.1149
     11 C          63.5597   83.0179   12.5328 C.ar    1  UNL1        0.0536
     12 C          62.7523   81.9155   13.1517 C.ar    1  UNL1        0.0046
     13 C          62.4562   80.6716   12.3675 C.ar    1  UNL1        0.0013
     14 C          62.9673   80.5300   10.9644 C.ar    1  UNL1        0.0140
     15 C          63.7747   81.6323   10.3455 C.ar    1  UNL1        0.0013
     16 C          64.0708   82.8762   11.1296 C.ar    1  UNL1        0.0046
     17 C          62.6712   79.2861   10.1803 C.2     1  UNL1        0.0729
     18 O          62.9420   77.9385   10.7810 O.co2   1  UNL1       -0.5446
     19 O          62.1042   79.3896    8.7955 O.co2   1  UNL1       -0.5446
     20 C          62.5781   90.8706   11.9236 C.3     1  UNL1        0.1010
     21 N          64.9082   91.8915   11.3956 N.3     1  UNL1       -0.3215
     22 C          63.9863   91.1776   12.3393 C.3     1  UNL1        0.0644
     23 H          64.4159   92.0902   10.5247 H       1  UNL1        0.1188
     24 H          65.7185   91.3031   11.2016 H       1  UNL1        0.1188
     25 C          64.4726   90.7708   13.6987 C.3     1  UNL1        0.0447
     26 C          65.6678   91.4477   14.3013 C.ar    1  UNL1        0.0090
     27 C          66.9766   91.4512   13.5684 C.ar    1  UNL1        0.0300
     28 C          68.1719   92.1281   14.1709 C.ar    1  UNL1        0.1672
     29 F          69.4806   92.1315   13.4380 F       1  UNL1       -0.2018
     30 C          68.0584   92.8016   15.5064 C.ar    1  UNL1        0.1696
     31 F          69.2536   93.4786   16.1090 F       1  UNL1       -0.2017
     32 C          66.7497   92.7982   16.2393 C.ar    1  UNL1        0.0612
     33 C          65.5543   92.1212   15.6368 C.ar    1  UNL1        0.1386
     34 F          64.2456   92.1178   16.3697 F       1  UNL1       -0.2044
@<TRIPOS>UNITY_ATOM_ATTR
18 1
charge -1
@<TRIPOS>BOND
     1    22    21    1
     2    22    20    1
     3    20     1    1
     4     1     2    2
     5     1     3   am
     6     3     4    1
     7     4     5    1
     8     5     6    1
     9     6     7   am
    10     7     8    2
    11     7    11    1
    12    11    12   ar
    13    12    13   ar
    14    13    14   ar
    15    14    17    1
    16    17    18   ar
    17    17    19   ar
    18    14    15   ar
    19    15    16   ar
    20     6     9    1
    21     9    10    1
    22    22    25    1
    23    25    26    1
    24    26    27   ar
    25    27    28   ar
    26    28    29    1
    27    28    30   ar
    28    30    31    1
    29    30    32   ar
    30    32    33   ar
    31    33    34    1
    32    10     3    1
    33    33    26   ar
    34    16    11   ar
    35    21    23    1
    36    21    24    1
@<TRIPOS>MOLECULE
*****
 34 36 0 0 0
SMALL
GASTEIGER

@<TRIPOS>ATOM
      1 C          59.2743   90.7197    5.5797 C.2     1  UNL1        0.2271
      2 O          57.7853   90.7533    5.7580 O.2     1  UNL1       -0.2748
      3 N          59.9052   91.4130    4.4086 N.am    1  UNL1       -0.2760
      4 C          59.0472   92.1398    3.4159 C.3     1  UNL1        0.1149
      5 C          59.6782   92.8331    2.2449 C.3     1  UNL1        0.1152
      6 N          61.1672   92.7995    2.0667 N.am    1  UNL1       -0.2726
      7 C          61.7981   93.4928    0.8956 C.2     1  UNL1        0.2491
      8 O          63.2871   93.4592    0.7174 O.2     1  UNL1       -0.2699
      9 C          62.0252   92.0727    3.0594 C.3     1  UNL1        0.1152
     10 C          61.3942   91.3795    4.2304 C.3     1  UNL1        0.1149
     11 C          60.9401   94.2196   -0.0971 C.ar    1  UNL1        0.0536
     12 C          60.6719   95.6854    0.0746 C.ar    1  UNL1        0.0046
     13 C          59.8139   96.4122   -0.9182 C.ar    1  UNL1        0.0013
     14 C          59.2240   95.6732   -2.0826 C.ar    1  UNL1        0.0140
     15 C          59.4922   94.2073   -2.2543 C.ar    1  UNL1        0.0013
     16 C          60.3502   93.4806   -1.2616 C.ar    1  UNL1        0.0046
     17 C          58.3660   96.3999   -3.0753 C.2     1  UNL1        0.0729
     18 O          56.9269   96.6809   -2.7591 O.co2   1  UNL1       -0.5446
     19 O          58.9471   96.8458   -4.3844 O.co2   1  UNL1       -0.5446
     20 C          60.1323   89.9930    6.5724 C.3     1  UNL1        0.1010
     21 N          58.4221   88.0966    7.0515 N.3     1  UNL1       -0.3215
     22 C          59.5125   89.0122    7.5234 C.3     1  UNL1        0.0644
     23 H          58.2302   88.2762    6.0659 H       1  UNL1        0.1188
     24 H          57.5775   88.2637    7.5983 H       1  UNL1        0.1188
     25 C          59.9832   88.9472    8.9461 C.3     1  UNL1        0.0447
     26 C          60.7608   87.7573    9.4251 C.ar    1  UNL1        0.0090
     27 C          61.6165   86.9847    8.4655 C.ar    1  UNL1        0.0300
     28 C          62.3941   85.7948    8.9445 C.ar    1  UNL1        0.1672
     29 F          63.2497   85.0223    7.9849 F       1  UNL1       -0.2018
     30 C          62.3160   85.3775   10.3832 C.ar    1  UNL1        0.1696
     31 F          63.0936   84.1876   10.8622 F       1  UNL1       -0.2017
     32 C          61.4603   86.1501   11.3428 C.ar    1  UNL1        0.0612
     33 C          60.6827   87.3400   10.8638 C.ar    1  UNL1        0.1386
     34 F          59.8270   88.1126   11.8234 F       1  UNL1       -0.2044
@<TRIPOS>UNITY_ATOM_ATTR
18 1
charge -1
@<TRIPOS>BOND
     1    22    21    1
     2    22    20    1
     3    20     1    1
     4     1     2    2
     5     1     3   am
     6     3     4    1
     7     4     5    1
     8     5     6    1
     9     6     7   am
    10     7     8    2
    11     7    11    1
    12    11    12   ar
    13    12    13   ar
    14    13    14   ar
    15    14    17    1
    16    17    18   ar
    17    17    19   ar
    18    14    15   ar
    19    15    16   ar
    20     6     9    1
    21     9    10    1
    22    22    25    1
    23    25    26    1
    24    26    27   ar
    25    27    28   ar
    26    28    29    1
    27    28    30   ar
    28    30    31    1
    29    30    32   ar
    30    32    33   ar
    31    33    34    1
    32    10     3    1
    33    33    26   ar
    34    16    11   ar
    35    21    23    1
    36    21    24    1
