@<TRIPOS>MOLECULE
*****
 44 49 0 0 0
SMALL
GASTEIGER

@<TRIPOS>ATOM
      1 C          55.9863   90.9760   -3.1640 C.ar    1  UNL1        0.1348
      2 C          55.3154   91.5735   -1.9629 C.ar    1  UNL1        0.0346
      3 C          55.9258   92.7583   -1.2747 C.ar    1  UNL1        0.0065
      4 C          57.2072   93.3456   -1.7877 C.ar    1  UNL1        0.0432
      5 C          57.8781   92.7480   -2.9888 C.ar    1  UNL1        0.1256
      6 N          57.2676   91.5632   -3.6770 N.ar    1  UNL1       -0.2222
      7 C          57.8176   94.5304   -1.0995 C.ar    1  UNL1        0.0851
      8 C          57.1421   95.8444   -0.8408 C.ar    1  UNL1        0.1021
      9 N          58.1178   96.7353   -0.1306 N.ar    1  UNL1       -0.2264
     10 C          59.3963   95.9719    0.0496 C.ar    1  UNL1        0.1474
     11 C          60.7055   96.3415    0.6816 C.ar    1  UNL1        0.0332
     12 C          61.8291   95.3484    0.7148 C.ar    1  UNL1       -0.0174
     13 C          63.1383   95.7180    1.3468 C.3     1  UNL1        0.0312
     14 C          61.6437   93.9856    0.1160 C.ar    1  UNL1        0.0149
     15 C          60.3345   93.6160   -0.5160 C.ar    1  UNL1        0.0811
     16 N          59.2108   94.6092   -0.5492 N.ar    1  UNL1       -0.2888
     17 C          55.7375   96.2044   -1.2249 C.ar    1  UNL1        0.0587
     18 C          54.6309   96.5684   -0.2800 C.ar    1  UNL1        0.1232
     19 N          53.4023   96.8525   -1.0924 N.ar    1  UNL1       -0.1675
     20 N          53.7498   96.6641   -2.5394 N.ar    1  UNL1       -0.2473
     21 C          52.8176   96.8446   -3.7008 C.3     1  UNL1        0.1538
     22 C          55.1930   96.2635   -2.6213 C.ar    1  UNL1        0.0982
     23 C          54.7125   89.9587   -5.1871 C.2     1  UNL1        0.2414
     24 O          54.6596   91.3112   -5.8338 O.2     1  UNL1       -0.2733
     25 N          55.3758   89.7912   -3.8522 N.am    1  UNL1       -0.2682
     26 H          55.4105   88.9035   -3.4278 H       1  UNL1        0.1563
     27 C          54.1020   88.7739   -5.8753 C.3     1  UNL1        0.1319
     28 C          54.0779   87.4393   -5.1909 C.3     1  UNL1        0.0270
     29 C          52.3104   89.7915   -7.4578 C.3     1  UNL1        0.0862
     30 N          53.5157   88.9237   -7.2477 N.3     1  UNL1       -0.2902
     31 H          54.2544   89.2962   -7.8444 H       1  UNL1        0.1237
     32 C          59.1595   93.3353   -3.5019 C.1     1  UNL1       -0.0404
     33 C          60.4409   93.9225   -4.0148 C.1     1  UNL1       -0.0583
     34 C          61.7223   94.5098   -4.5279 C.ar    1  UNL1        0.0420
     35 C          62.0082   94.5152   -6.0004 C.ar    1  UNL1        0.0083
     36 C          63.2896   95.1024   -6.5134 C.ar    1  UNL1        0.0018
     37 C          64.2850   95.6843   -5.5540 C.ar    1  UNL1        0.0137
     38 C          65.5664   96.2715   -6.0670 C.ar    1  UNL1        0.0594
     39 C          65.8523   96.2769   -7.5395 C.3     1  UNL1        0.0521
     40 N          66.5618   96.8534   -5.1076 N.ar    1  UNL1       -0.2481
     41 C          66.2759   96.8479   -3.6351 C.ar    1  UNL1        0.0984
     42 C          64.9946   96.2607   -3.1220 C.ar    1  UNL1        0.0207
     43 C          63.9991   95.6789   -4.0815 C.ar    1  UNL1        0.0033
     44 C          62.7177   95.0916   -3.5684 C.ar    1  UNL1        0.0083
@<TRIPOS>BOND
     1    29    30    1
     2    30    27    1
     3    27    28    1
     4    27    23    1
     5    23    24    2
     6    23    25   am
     7    25     1    1
     8     1     2   ar
     9     2     3   ar
    10     3     4   ar
    11     4     7    1
    12     7     8   ar
    13     8    17    1
    14    17    18   ar
    15    18    19   ar
    16    19    20   ar
    17    20    21    1
    18    20    22   ar
    19     8     9   ar
    20     9    10   ar
    21    10    11   ar
    22    11    12   ar
    23    12    13    1
    24    12    14   ar
    25    14    15   ar
    26    15    16   ar
    27     4     5   ar
    28     5    32    1
    29    32    33    3
    30    33    34    1
    31    34    35   ar
    32    35    36   ar
    33    36    37   ar
    34    37    38   ar
    35    38    39    1
    36    38    40   ar
    37    40    41   ar
    38    41    42   ar
    39    42    43   ar
    40    43    44   ar
    41     5     6   ar
    42     6     1   ar
    43    16     7   ar
    44    44    34   ar
    45    22    17   ar
    46    16    10   ar
    47    43    37   ar
    48    30    31    1
    49    25    26    1
@<TRIPOS>MOLECULE
*****
 44 49 0 0 0
SMALL
GASTEIGER

@<TRIPOS>ATOM
      1 C          64.3811   90.2570   13.4060 C.ar    1  UNL1        0.1348
      2 C          63.6418   91.0737   12.3881 C.ar    1  UNL1        0.0346
      3 C          62.7504   90.3984   11.3885 C.ar    1  UNL1        0.0065
      4 C          62.5982   88.9063   11.4068 C.ar    1  UNL1        0.0432
      5 C          63.3375   88.0895   12.4248 C.ar    1  UNL1        0.1256
      6 N          64.2290   88.7649   13.4244 N.ar    1  UNL1       -0.2222
      7 C          61.7068   88.2309   10.4072 C.ar    1  UNL1        0.0851
      8 C          60.2414   88.4885   10.2169 C.ar    1  UNL1        0.1021
      9 N          59.7532   87.5962    9.1145 N.ar    1  UNL1       -0.2264
     10 C          60.9168   86.7870    8.6234 C.ar    1  UNL1        0.1474
     11 C          61.0330   85.7437    7.5520 C.ar    1  UNL1        0.0332
     12 C          62.3566   85.0927    7.2795 C.ar    1  UNL1       -0.0174
     13 C          62.4728   84.0494    6.2081 C.3     1  UNL1        0.0312
     14 C          63.5641   85.4849    8.0784 C.ar    1  UNL1        0.0149
     15 C          63.4479   86.5282    9.1499 C.ar    1  UNL1        0.0811
     16 N          62.1242   87.1793    9.4224 N.ar    1  UNL1       -0.2888
     17 C          59.4101   89.4668   10.9928 C.ar    1  UNL1        0.0587
     18 C          58.5071   89.1379   12.1445 C.ar    1  UNL1        0.1232
     19 N          57.8748   90.4135   12.6168 N.ar    1  UNL1       -0.1675
     20 N          58.3871   91.5308   11.7569 N.ar    1  UNL1       -0.2473
     21 C          58.0157   92.9790   11.8791 C.3     1  UNL1        0.1538
     22 C          59.3359   90.9456   10.7532 C.ar    1  UNL1        0.0982
     23 C          66.4253   91.7700   13.9372 C.2     1  UNL1        0.2414
     24 O          66.6867   91.9323   12.4690 O.2     1  UNL1       -0.2733
     25 N          65.2726   90.9323   14.4056 N.am    1  UNL1       -0.2682
     26 H          65.1010   90.8258   15.3692 H       1  UNL1        0.1563
     27 C          67.3167   92.4453   14.9368 C.3     1  UNL1        0.1319
     28 C          66.8195   92.7095   16.3272 C.3     1  UNL1        0.0270
     29 C          69.5864   93.5582   15.5367 C.3     1  UNL1        0.0862
     30 N          68.7053   92.8565   14.5461 N.3     1  UNL1       -0.2902
     31 H          69.1959   92.0074   14.2654 H       1  UNL1        0.1237
     32 C          63.1854   86.5973   12.4432 C.1     1  UNL1       -0.0404
     33 C          63.0333   85.1052   12.4616 C.1     1  UNL1       -0.0583
     34 C          62.8812   83.6130   12.4800 C.ar    1  UNL1        0.0420
     35 C          62.5547   82.9082   13.7632 C.ar    1  UNL1        0.0083
     36 C          62.4025   81.4160   13.7817 C.ar    1  UNL1        0.0018
     37 C          62.5769   80.6287   12.5169 C.ar    1  UNL1        0.0137
     38 C          62.4248   79.1365   12.5353 C.ar    1  UNL1        0.0594
     39 C          62.0983   78.4317   13.8185 C.3     1  UNL1        0.0521
     40 N          62.5992   78.3492   11.2705 N.ar    1  UNL1       -0.2481
     41 C          62.9257   79.0540    9.9873 C.ar    1  UNL1        0.0984
     42 C          63.0778   80.5461    9.9689 C.ar    1  UNL1        0.0207
     43 C          62.9034   81.3335   11.2337 C.ar    1  UNL1        0.0033
     44 C          63.0555   82.8257   11.2153 C.ar    1  UNL1        0.0083
@<TRIPOS>BOND
     1    29    30    1
     2    30    27    1
     3    27    28    1
     4    27    23    1
     5    23    24    2
     6    23    25   am
     7    25     1    1
     8     1     2   ar
     9     2     3   ar
    10     3     4   ar
    11     4     7    1
    12     7     8   ar
    13     8    17    1
    14    17    18   ar
    15    18    19   ar
    16    19    20   ar
    17    20    21    1
    18    20    22   ar
    19     8     9   ar
    20     9    10   ar
    21    10    11   ar
    22    11    12   ar
    23    12    13    1
    24    12    14   ar
    25    14    15   ar
    26    15    16   ar
    27     4     5   ar
    28     5    32    1
    29    32    33    3
    30    33    34    1
    31    34    35   ar
    32    35    36   ar
    33    36    37   ar
    34    37    38   ar
    35    38    39    1
    36    38    40   ar
    37    40    41   ar
    38    41    42   ar
    39    42    43   ar
    40    43    44   ar
    41     5     6   ar
    42     6     1   ar
    43    16     7   ar
    44    44    34   ar
    45    22    17   ar
    46    16    10   ar
    47    43    37   ar
    48    30    31    1
    49    25    26    1
@<TRIPOS>MOLECULE
*****
 44 49 0 0 0
SMALL
GASTEIGER

@<TRIPOS>ATOM
      1 C          59.9273   90.2101    6.2175 C.ar    1  UNL1        0.1348
      2 C          59.3853   88.8121    6.2592 C.ar    1  UNL1        0.0346
      3 C          59.7429   87.9027    7.3972 C.ar    1  UNL1        0.0065
      4 C          60.6426   88.3913    8.4935 C.ar    1  UNL1        0.0432
      5 C          61.1846   89.7893    8.4517 C.ar    1  UNL1        0.1256
      6 N          60.8270   90.6987    7.3137 N.ar    1  UNL1       -0.2222
      7 C          61.0003   87.4819    9.6315 C.ar    1  UNL1        0.0851
      8 C          60.5435   87.6267   11.0529 C.ar    1  UNL1        0.1021
      9 N          61.1385   86.5023   11.8478 N.ar    1  UNL1       -0.2264
     10 C          61.9629   85.6626   10.9176 C.ar    1  UNL1        0.1474
     11 C          62.7804   84.4249   11.1409 C.ar    1  UNL1        0.0332
     12 C          63.5124   83.7926    9.9945 C.ar    1  UNL1       -0.0174
     13 C          64.3298   82.5549   10.2178 C.3     1  UNL1        0.0312
     14 C          63.4270   84.3980    8.6247 C.ar    1  UNL1        0.0149
     15 C          62.6096   85.6357    8.4014 C.ar    1  UNL1        0.0811
     16 N          61.8775   86.2680    9.5479 N.ar    1  UNL1       -0.2888
     17 C          59.6489   88.7063   11.5859 C.ar    1  UNL1        0.0587
     18 C          58.6369   88.5515   12.6821 C.ar    1  UNL1        0.1232
     19 N          57.9718   89.8798   12.8900 N.ar    1  UNL1       -0.1675
     20 N          58.5728   90.8556   11.9221 N.ar    1  UNL1       -0.2473
     21 C          58.2023   92.3026   11.7844 C.3     1  UNL1        0.1538
     22 C          59.6094   90.1303   11.1161 C.ar    1  UNL1        0.0982
     23 C          60.6446   91.6545    4.1806 C.2     1  UNL1        0.2414
     24 O          62.0774   91.2801    4.4197 O.2     1  UNL1       -0.2733
     25 N          59.5696   91.1195    5.0794 N.am    1  UNL1       -0.2682
     26 H          58.6293   91.3652    4.9225 H       1  UNL1        0.1563
     27 C          60.2869   92.5639    3.0425 C.3     1  UNL1        0.1319
     28 C          61.2882   93.5584    2.5340 C.3     1  UNL1        0.0270
     29 C          58.7408   92.8702    0.9772 C.3     1  UNL1        0.0862
     30 N          58.9281   92.4789    2.4131 N.3     1  UNL1       -0.2902
     31 H          58.6256   91.5082    2.4956 H       1  UNL1        0.1237
     32 C          62.0844   90.2779    9.5480 C.1     1  UNL1       -0.0404
     33 C          62.9840   90.7666   10.6442 C.1     1  UNL1       -0.0583
     34 C          63.8837   91.2552   11.7405 C.ar    1  UNL1        0.0420
     35 C          65.1740   91.9412   11.4020 C.ar    1  UNL1        0.0083
     36 C          66.0738   92.4299   12.4982 C.ar    1  UNL1        0.0018
     37 C          65.6832   92.2325   13.9329 C.ar    1  UNL1        0.0137
     38 C          66.5829   92.7212   15.0292 C.ar    1  UNL1        0.0594
     39 C          67.8732   93.4072   14.6906 C.3     1  UNL1        0.0521
     40 N          66.1924   92.5239   16.4639 N.ar    1  UNL1       -0.2481
     41 C          64.9021   91.8379   16.8024 C.ar    1  UNL1        0.0984
     42 C          64.0024   91.3493   15.7062 C.ar    1  UNL1        0.0207
     43 C          64.3929   91.5466   14.2714 C.ar    1  UNL1        0.0033
     44 C          63.4932   91.0579   13.1752 C.ar    1  UNL1        0.0083
@<TRIPOS>BOND
     1    29    30    1
     2    30    27    1
     3    27    28    1
     4    27    23    1
     5    23    24    2
     6    23    25   am
     7    25     1    1
     8     1     2   ar
     9     2     3   ar
    10     3     4   ar
    11     4     7    1
    12     7     8   ar
    13     8    17    1
    14    17    18   ar
    15    18    19   ar
    16    19    20   ar
    17    20    21    1
    18    20    22   ar
    19     8     9   ar
    20     9    10   ar
    21    10    11   ar
    22    11    12   ar
    23    12    13    1
    24    12    14   ar
    25    14    15   ar
    26    15    16   ar
    27     4     5   ar
    28     5    32    1
    29    32    33    3
    30    33    34    1
    31    34    35   ar
    32    35    36   ar
    33    36    37   ar
    34    37    38   ar
    35    38    39    1
    36    38    40   ar
    37    40    41   ar
    38    41    42   ar
    39    42    43   ar
    40    43    44   ar
    41     5     6   ar
    42     6     1   ar
    43    16     7   ar
    44    44    34   ar
    45    22    17   ar
    46    16    10   ar
    47    43    37   ar
    48    30    31    1
    49    25    26    1
@<TRIPOS>MOLECULE
*****
 44 49 0 0 0
SMALL
GASTEIGER

@<TRIPOS>ATOM
      1 C          59.9520   90.0690    6.1963 C.ar    1  UNL1        0.1348
      2 C          59.3860   88.6816    6.2636 C.ar    1  UNL1        0.0346
      3 C          59.7312   87.7858    7.4162 C.ar    1  UNL1        0.0065
      4 C          60.6424   88.2775    8.5015 C.ar    1  UNL1        0.0432
      5 C          61.2084   89.6650    8.4342 C.ar    1  UNL1        0.1256
      6 N          60.8632   90.5607    7.2816 N.ar    1  UNL1       -0.2222
      7 C          60.9875   87.3817    9.6540 C.ar    1  UNL1        0.0851
      8 C          60.5268   87.5515   11.0714 C.ar    1  UNL1        0.1021
      9 N          61.1086   86.4336   11.8850 N.ar    1  UNL1       -0.2264
     10 C          61.9289   85.5730   10.9704 C.ar    1  UNL1        0.1474
     11 C          62.7343   84.3314   11.2150 C.ar    1  UNL1        0.0332
     12 C          63.4648   83.6758   10.0808 C.ar    1  UNL1       -0.0174
     13 C          64.2702   82.4342   10.3254 C.3     1  UNL1        0.0312
     14 C          63.3901   84.2617    8.7020 C.ar    1  UNL1        0.0149
     15 C          62.5847   85.5033    8.4574 C.ar    1  UNL1        0.0811
     16 N          61.8541   86.1589    9.5917 N.ar    1  UNL1       -0.2888
     17 C          59.6400   88.6468   11.5851 C.ar    1  UNL1        0.0587
     18 C          58.6119   88.5136   12.6690 C.ar    1  UNL1        0.1232
     19 N          57.9621   89.8521   12.8588 N.ar    1  UNL1       -0.1675
     20 N          58.5887   90.8127   11.8921 N.ar    1  UNL1       -0.2473
     21 C          58.2396   92.2636   11.7393 C.3     1  UNL1        0.1538
     22 C          59.6258   90.0678   11.1048 C.ar    1  UNL1        0.0982
     23 C          60.6981   91.5740    4.2143 C.2     1  UNL1        0.2414
     24 O          62.1346   91.2875    4.5374 O.2     1  UNL1       -0.2733
     25 N          59.6068   90.9648    5.0437 N.am    1  UNL1       -0.2682
     26 H          58.6640   91.1529    4.8316 H       1  UNL1        0.1563
     27 C          60.3529   92.4698    3.0617 C.3     1  UNL1        0.1319
     28 C          61.4283   93.2628    2.3799 C.3     1  UNL1        0.0270
     29 C          58.6393   92.9301    1.1640 C.3     1  UNL1        0.0862
     30 N          58.9324   92.5725    2.5909 N.3     1  UNL1       -0.2902
     31 H          58.4991   91.6651    2.7621 H       1  UNL1        0.1237
     32 C          62.1196   90.1567    9.5195 C.1     1  UNL1       -0.0404
     33 C          63.0308   90.6485   10.6048 C.1     1  UNL1       -0.0583
     34 C          63.9420   91.1402   11.6902 C.ar    1  UNL1        0.0420
     35 C          64.1704   90.3036   12.9140 C.ar    1  UNL1        0.0083
     36 C          65.0816   90.7953   13.9993 C.ar    1  UNL1        0.0018
     37 C          65.7644   92.1236   13.8608 C.ar    1  UNL1        0.0137
     38 C          66.6756   92.6154   14.9461 C.ar    1  UNL1        0.0594
     39 C          66.9040   91.7787   16.1700 C.3     1  UNL1        0.0521
     40 N          67.3584   93.9437   14.8076 N.ar    1  UNL1       -0.2481
     41 C          67.1300   94.7804   13.5837 C.ar    1  UNL1        0.0984
     42 C          66.2188   94.2887   12.4984 C.ar    1  UNL1        0.0207
     43 C          65.5360   92.9603   12.6369 C.ar    1  UNL1        0.0033
     44 C          64.6248   92.4686   11.5516 C.ar    1  UNL1        0.0083
@<TRIPOS>BOND
     1    29    30    1
     2    30    27    1
     3    27    28    1
     4    27    23    1
     5    23    24    2
     6    23    25   am
     7    25     1    1
     8     1     2   ar
     9     2     3   ar
    10     3     4   ar
    11     4     7    1
    12     7     8   ar
    13     8    17    1
    14    17    18   ar
    15    18    19   ar
    16    19    20   ar
    17    20    21    1
    18    20    22   ar
    19     8     9   ar
    20     9    10   ar
    21    10    11   ar
    22    11    12   ar
    23    12    13    1
    24    12    14   ar
    25    14    15   ar
    26    15    16   ar
    27     4     5   ar
    28     5    32    1
    29    32    33    3
    30    33    34    1
    31    34    35   ar
    32    35    36   ar
    33    36    37   ar
    34    37    38   ar
    35    38    39    1
    36    38    40   ar
    37    40    41   ar
    38    41    42   ar
    39    42    43   ar
    40    43    44   ar
    41     5     6   ar
    42     6     1   ar
    43    16     7   ar
    44    44    34   ar
    45    22    17   ar
    46    16    10   ar
    47    43    37   ar
    48    30    31    1
    49    25    26    1
