@<TRIPOS>MOLECULE
*****
 44 48 0 0 0
SMALL
GASTEIGER

@<TRIPOS>ATOM
      1 C          62.6590   85.8333   12.5402 C.3     1  UNL1        0.1695
      2 C          61.9027   86.3676   11.3601 C.3     1  UNL1        0.1271
      3 N          61.8849   87.7652   10.8157 N.am    1  UNL1       -0.2550
      4 C          61.0185   87.9832    9.6107 C.2     1  UNL1        0.2339
      5 O          60.9294   89.3447    8.9874 O.2     1  UNL1       -0.2742
      6 C          62.6188   88.9737   11.3167 C.ar    1  UNL1        0.0676
      7 C          62.3208   90.1820   10.4795 C.ar    1  UNL1        0.0162
      8 C          62.9559   91.4997   10.8117 C.ar    1  UNL1        0.0014
      9 C          63.8890   91.6090   11.9810 C.ar    1  UNL1        0.0014
     10 C          64.1870   90.4006   12.8182 C.ar    1  UNL1        0.0162
     11 C          63.5519   89.0829   12.4861 C.ar    1  UNL1        0.0679
     12 N          63.9815   88.0107   13.4431 N.am    1  UNL1       -0.2517
     13 C          63.5842   86.5645   13.4673 C.2     1  UNL1        0.2493
     14 O          64.1924   85.7407   14.5633 O.2     1  UNL1       -0.2727
     15 C          63.1928   83.3442   12.0212 C.2     1  UNL1        0.2371
     16 O          64.1159   83.7720   10.9189 O.2     1  UNL1       -0.2737
     17 N          62.4644   84.3748   12.8318 N.am    1  UNL1       -0.2959
     18 H          61.8586   84.0941   13.5552 H       1  UNL1        0.1499
     19 C          62.9982   81.8857   12.3127 C.3     1  UNL1        0.1316
     20 C          63.0391   80.8856   11.1956 C.3     1  UNL1        0.0270
     21 C          61.3719   81.1076   14.1834 C.3     1  UNL1        0.0862
     22 N          62.7626   81.4275   13.7214 N.3     1  UNL1       -0.2902
     23 H          63.3183   80.5822   13.8529 H       1  UNL1        0.1237
     24 C          60.2411   86.8397    9.0291 C.3     1  UNL1        0.1134
     25 C          60.8799   85.9371    8.0156 C.ar    1  UNL1        0.0061
     26 C          62.3507   85.6513    8.0872 C.ar    1  UNL1       -0.0007
     27 C          62.9895   84.7487    7.0737 C.ar    1  UNL1        0.0204
     28 C          62.1576   84.1319    5.9885 C.ar    1  UNL1        0.0989
     29 N          60.6868   84.4178    5.9170 N.ar    1  UNL1       -0.2426
     30 C          60.0479   85.3204    6.9305 C.ar    1  UNL1        0.0951
     31 C          64.9345   88.4418   14.5183 C.3     1  UNL1        0.1278
     32 C          64.6654   89.6923   15.3020 C.ar    1  UNL1        0.0320
     33 C          63.3849   89.8348   16.0700 C.ar    1  UNL1        0.1363
     34 C          63.1157   91.0852   16.8537 C.ar    1  UNL1        0.0366
     35 C          64.1270   92.1929   16.8693 C.ar    1  UNL1        0.0031
     36 C          65.4075   92.0503   16.1012 C.ar    1  UNL1        0.0004
     37 C          66.4189   93.1580   16.1167 C.ar    1  UNL1        0.0067
     38 C          67.6993   93.0153   15.3486 C.ar    1  UNL1        0.0346
     39 BR         68.7106   94.1230   15.3642 Br      1  UNL1       -0.0490
     40 C          67.9685   91.7649   14.5649 C.ar    1  UNL1        0.0067
     41 C          66.9572   90.6573   14.5494 C.ar    1  UNL1        0.0003
     42 C          65.6768   90.7999   15.3175 C.ar    1  UNL1        0.0006
     43 O          62.3736   88.7272   16.0545 O.3     1  UNL1       -0.4717
     44 C          62.2067   87.4574   16.8353 C.3     1  UNL1        0.2525
@<TRIPOS>BOND
     1    21    22    1
     2    22    19    1
     3    19    20    1
     4    19    15    1
     5    15    16    2
     6    15    17   am
     7     1    17    1
     8     1     2    1
     9     2     3    1
    10     3     4   am
    11     4     5    2
    12     4    24    1
    13    24    25    1
    14    25    26   ar
    15    26    27   ar
    16    27    28   ar
    17    28    29   ar
    18    29    30   ar
    19     3     6    1
    20     6     7   ar
    21     7     8   ar
    22     8     9   ar
    23     9    10   ar
    24    10    11   ar
    25    11    12    1
    26    12    31    1
    27    31    32    1
    28    32    33   ar
    29    33    43    1
    30    43    44    1
    31    33    34   ar
    32    34    35   ar
    33    35    36   ar
    34    36    37   ar
    35    37    38   ar
    36    38    39    1
    37    38    40   ar
    38    40    41   ar
    39    41    42   ar
    40    12    13   am
    41    13    14    2
    42    13     1    1
    43    30    25   ar
    44    11     6   ar
    45    42    32   ar
    46    42    36   ar
    47    22    23    1
    48    17    18    1
@<TRIPOS>MOLECULE
*****
 44 48 0 0 0
SMALL
GASTEIGER

@<TRIPOS>ATOM
      1 C          62.9980   86.3068   11.3905 C.3     1  UNL1        0.1695
      2 C          63.3332   85.1982   12.3439 C.3     1  UNL1        0.1271
      3 N          63.5192   85.2678   13.8307 N.am    1  UNL1       -0.2550
      4 C          63.8525   83.9706   14.5062 C.2     1  UNL1        0.2339
      5 O          64.0589   83.9297   15.9914 O.2     1  UNL1       -0.2742
      6 C          63.4159   86.4628   14.7314 C.ar    1  UNL1        0.0676
      7 C          63.6763   86.0949   16.1621 C.ar    1  UNL1        0.0162
      8 C          63.6219   87.1478   17.2290 C.ar    1  UNL1        0.0014
      9 C          63.3072   88.5686   16.8652 C.ar    1  UNL1        0.0014
     10 C          63.0468   88.9365   15.4346 C.ar    1  UNL1        0.0162
     11 C          63.1012   87.8836   14.3677 C.ar    1  UNL1        0.0679
     12 N          62.8120   88.4602   13.0134 N.am    1  UNL1       -0.2517
     13 C          62.7660   87.7585   11.6885 C.2     1  UNL1        0.2493
     14 O          62.4458   88.6227   10.5051 O.2     1  UNL1       -0.2727
     15 C          61.5347   85.8959    9.2835 C.2     1  UNL1        0.2371
     16 O          60.3092   86.2760   10.0604 O.2     1  UNL1       -0.2737
     17 N          62.8791   85.9112    9.9485 N.am    1  UNL1       -0.2959
     18 H          63.6834   85.6617    9.4386 H       1  UNL1        0.1499
     19 C          61.4158   85.5004    7.8414 C.3     1  UNL1        0.1316
     20 C          62.6143   84.9786    7.1056 C.3     1  UNL1        0.0270
     21 C          59.1655   86.7485    7.4832 C.3     1  UNL1        0.0862
     22 N          60.0985   85.6266    7.1353 N.3     1  UNL1       -0.2902
     23 H          60.3049   85.7132    6.1402 H       1  UNL1        0.1237
     24 C          63.9794   82.7142   13.6965 C.3     1  UNL1        0.1134
     25 C          62.8931   81.6808   13.7403 C.ar    1  UNL1        0.0061
     26 C          63.1256   80.3228   13.1474 C.ar    1  UNL1       -0.0007
     27 C          62.0392   79.2893   13.1911 C.ar    1  UNL1        0.0204
     28 C          60.7204   79.6140   13.8279 C.ar    1  UNL1        0.0989
     29 N          60.4880   80.9720   14.4208 N.ar    1  UNL1       -0.2426
     30 C          61.5743   82.0055   14.3771 C.ar    1  UNL1        0.0951
     31 C          62.5316   89.9334   12.9797 C.3     1  UNL1        0.1278
     32 C          63.4691   90.8591   12.2626 C.ar    1  UNL1        0.0320
     33 C          63.1392   91.3368   10.8795 C.ar    1  UNL1        0.1363
     34 C          64.0766   92.2626   10.1623 C.ar    1  UNL1        0.0366
     35 C          65.3438   92.7106   10.8283 C.ar    1  UNL1        0.0031
     36 C          65.6736   92.2328   12.2115 C.ar    1  UNL1        0.0004
     37 C          66.9408   92.6808   12.8774 C.ar    1  UNL1        0.0067
     38 C          67.2705   92.2031   14.2605 C.ar    1  UNL1        0.0346
     39 BR         68.5377   92.6511   14.9265 Br      1  UNL1       -0.0490
     40 C          66.3331   91.2773   14.9777 C.ar    1  UNL1        0.0067
     41 C          65.0660   90.8294   14.3117 C.ar    1  UNL1        0.0003
     42 C          64.7362   91.3071   12.9286 C.ar    1  UNL1        0.0006
     43 O          61.8721   90.8889   10.2134 O.3     1  UNL1       -0.4717
     44 C          60.4479   90.7562   10.6652 C.3     1  UNL1        0.2525
@<TRIPOS>BOND
     1    21    22    1
     2    22    19    1
     3    19    20    1
     4    19    15    1
     5    15    16    2
     6    15    17   am
     7     1    17    1
     8     1     2    1
     9     2     3    1
    10     3     4   am
    11     4     5    2
    12     4    24    1
    13    24    25    1
    14    25    26   ar
    15    26    27   ar
    16    27    28   ar
    17    28    29   ar
    18    29    30   ar
    19     3     6    1
    20     6     7   ar
    21     7     8   ar
    22     8     9   ar
    23     9    10   ar
    24    10    11   ar
    25    11    12    1
    26    12    31    1
    27    31    32    1
    28    32    33   ar
    29    33    43    1
    30    43    44    1
    31    33    34   ar
    32    34    35   ar
    33    35    36   ar
    34    36    37   ar
    35    37    38   ar
    36    38    39    1
    37    38    40   ar
    38    40    41   ar
    39    41    42   ar
    40    12    13   am
    41    13    14    2
    42    13     1    1
    43    30    25   ar
    44    11     6   ar
    45    42    32   ar
    46    42    36   ar
    47    22    23    1
    48    17    18    1
@<TRIPOS>MOLECULE
*****
 44 48 0 0 0
SMALL
GASTEIGER

@<TRIPOS>ATOM
      1 C          61.8327   86.2346   10.9021 C.3     1  UNL1        0.1695
      2 C          62.5671   85.0675   11.4925 C.3     1  UNL1        0.1271
      3 N          63.4972   85.0461   12.6692 N.am    1  UNL1       -0.2550
      4 C          64.0787   83.7073   13.0147 C.2     1  UNL1        0.2339
      5 O          65.0210   83.5756   14.1744 O.2     1  UNL1       -0.2742
      6 C          63.9227   86.1864   13.5460 C.ar    1  UNL1        0.0676
      7 C          64.8697   85.7309   14.6163 C.ar    1  UNL1        0.0162
      8 C          65.4171   86.7189   15.6034 C.ar    1  UNL1        0.0014
      9 C          65.0175   88.1623   15.5200 C.ar    1  UNL1        0.0014
     10 C          64.0705   88.6177   14.4497 C.ar    1  UNL1        0.0162
     11 C          63.5231   87.6298   13.4627 C.ar    1  UNL1        0.0679
     12 N          62.5994   88.2894   12.4819 N.am    1  UNL1       -0.2517
     13 C          61.8471   87.6685   11.3424 C.2     1  UNL1        0.2493
     14 O          60.9968   88.6053   10.5367 O.2     1  UNL1       -0.2727
     15 C          61.5995   85.6555    8.3802 C.2     1  UNL1        0.2371
     16 O          63.0920   85.6913    8.2339 O.2     1  UNL1       -0.2737
     17 N          60.9699   85.9272    9.7142 N.am    1  UNL1       -0.2959
     18 H          59.9904   85.9038    9.8102 H       1  UNL1        0.1499
     19 C          60.7367   85.3481    7.1923 C.3     1  UNL1        0.1316
     20 C          61.2844   84.5333    6.0582 C.3     1  UNL1        0.0270
     21 C          59.0165   87.2579    7.5712 C.3     1  UNL1        0.0862
     22 N          59.3261   85.8555    7.1385 N.3     1  UNL1       -0.2902
     23 H          59.0200   85.7721    6.1691 H       1  UNL1        0.1237
     24 C          63.7180   82.5002   12.2006 C.3     1  UNL1        0.1134
     25 C          62.7784   81.4726   12.7587 C.ar    1  UNL1        0.0061
     26 C          61.6881   81.8870   13.7017 C.ar    1  UNL1       -0.0007
     27 C          60.7485   80.8595   14.2598 C.ar    1  UNL1        0.0204
     28 C          60.8992   79.4176   13.8747 C.ar    1  UNL1        0.0989
     29 N          61.9896   79.0033   12.9316 N.ar    1  UNL1       -0.2426
     30 C          62.9292   80.0307   12.3735 C.ar    1  UNL1        0.0951
     31 C          62.4018   89.7650   12.6651 C.3     1  UNL1        0.1278
     32 C          63.3761   90.7328   12.0615 C.ar    1  UNL1        0.0320
     33 C          63.3184   91.0381   10.5941 C.ar    1  UNL1        0.1363
     34 C          64.2926   92.0059    9.9905 C.ar    1  UNL1        0.0366
     35 C          65.3246   92.6683   10.8544 C.ar    1  UNL1        0.0031
     36 C          65.3823   92.3629   12.3219 C.ar    1  UNL1        0.0004
     37 C          66.4143   93.0253   13.1858 C.ar    1  UNL1        0.0067
     38 C          66.4719   92.7199   14.6532 C.ar    1  UNL1        0.0346
     39 BR         67.5039   93.3823   15.5171 Br      1  UNL1       -0.0490
     40 C          65.4977   91.7521   15.2568 C.ar    1  UNL1        0.0067
     41 C          64.4658   91.0898   14.3928 C.ar    1  UNL1        0.0003
     42 C          64.4081   91.3951   12.9255 C.ar    1  UNL1        0.0006
     43 O          62.2865   90.3758    9.7301 O.3     1  UNL1       -0.4717
     44 C          60.8077   90.5527    9.5514 C.3     1  UNL1        0.2525
@<TRIPOS>BOND
     1    21    22    1
     2    22    19    1
     3    19    20    1
     4    19    15    1
     5    15    16    2
     6    15    17   am
     7     1    17    1
     8     1     2    1
     9     2     3    1
    10     3     4   am
    11     4     5    2
    12     4    24    1
    13    24    25    1
    14    25    26   ar
    15    26    27   ar
    16    27    28   ar
    17    28    29   ar
    18    29    30   ar
    19     3     6    1
    20     6     7   ar
    21     7     8   ar
    22     8     9   ar
    23     9    10   ar
    24    10    11   ar
    25    11    12    1
    26    12    31    1
    27    31    32    1
    28    32    33   ar
    29    33    43    1
    30    43    44    1
    31    33    34   ar
    32    34    35   ar
    33    35    36   ar
    34    36    37   ar
    35    37    38   ar
    36    38    39    1
    37    38    40   ar
    38    40    41   ar
    39    41    42   ar
    40    12    13   am
    41    13    14    2
    42    13     1    1
    43    30    25   ar
    44    11     6   ar
    45    42    32   ar
    46    42    36   ar
    47    22    23    1
    48    17    18    1
@<TRIPOS>MOLECULE
*****
 44 48 0 0 0
SMALL
GASTEIGER

@<TRIPOS>ATOM
      1 C          62.2661   88.1151   10.5540 C.3     1  UNL1        0.1695
      2 C          62.5184   86.6870   10.9373 C.3     1  UNL1        0.1271
      3 N          63.0971   86.1493   12.2124 N.am    1  UNL1       -0.2550
      4 C          63.2232   84.6566   12.2912 C.2     1  UNL1        0.2339
      5 O          63.7899   84.0158   13.5235 O.2     1  UNL1       -0.2742
      6 C          63.5663   86.9066   13.4192 C.ar    1  UNL1        0.0676
      7 C          64.0783   85.9807   14.4824 C.ar    1  UNL1        0.0162
      8 C          64.5968   86.5371   15.7753 C.ar    1  UNL1        0.0014
      9 C          64.6033   88.0194   16.0049 C.ar    1  UNL1        0.0014
     10 C          64.0912   88.9453   14.9417 C.ar    1  UNL1        0.0162
     11 C          63.5728   88.3889   13.6488 C.ar    1  UNL1        0.0679
     12 N          63.1116   89.4799   12.7284 N.am    1  UNL1       -0.2517
     13 C          62.5301   89.3581   11.3511 C.2     1  UNL1        0.2493
     14 O          62.1641   90.6500   10.6826 O.2     1  UNL1       -0.2727
     15 C          60.1813   88.3780    9.0261 C.2     1  UNL1        0.2371
     16 O          59.2865   88.2143   10.2188 O.2     1  UNL1       -0.2737
     17 N          61.6711   88.3285    9.1937 N.am    1  UNL1       -0.2959
     18 H          62.2584   88.4360    8.4109 H       1  UNL1        0.1499
     19 C          59.5864   88.5914    7.6657 C.3     1  UNL1        0.1316
     20 C          58.8211   87.4862    7.0001 C.3     1  UNL1        0.0270
     21 C          58.9107   90.2438    5.7782 C.3     1  UNL1        0.0862
     22 N          59.7566   89.9098    6.9710 N.3     1  UNL1       -0.2902
     23 H          59.5825   90.6343    7.6676 H       1  UNL1        0.1237
     24 C          62.7826   83.8048   11.1378 C.3     1  UNL1        0.1134
     25 C          62.7658   82.3109   11.2722 C.ar    1  UNL1        0.0061
     26 C          63.1304   81.4484   10.1004 C.ar    1  UNL1       -0.0007
     27 C          63.1135   79.9545   10.2348 C.ar    1  UNL1        0.0204
     28 C          62.7321   79.3231   11.5409 C.ar    1  UNL1        0.0989
     29 N          62.3675   80.1857   12.7126 N.ar    1  UNL1       -0.2426
     30 C          62.3844   81.6796   12.5784 C.ar    1  UNL1        0.0951
     31 C          63.2503   90.8776   13.2550 C.3     1  UNL1        0.1278
     32 C          64.6121   91.4457   13.5252 C.ar    1  UNL1        0.0320
     33 C          65.1147   91.5507   14.9345 C.ar    1  UNL1        0.1363
     34 C          66.4765   92.1187   15.2047 C.ar    1  UNL1        0.0366
     35 C          67.3355   92.5818   14.0655 C.ar    1  UNL1        0.0031
     36 C          66.8327   92.4768   12.6561 C.ar    1  UNL1        0.0004
     37 C          67.6917   92.9399   11.5169 C.ar    1  UNL1        0.0067
     38 C          67.1889   92.8348   10.1077 C.ar    1  UNL1        0.0346
     39 BR         68.0479   93.2979    8.9685 Br      1  UNL1       -0.0490
     40 C          65.8272   92.2667    9.8375 C.ar    1  UNL1        0.0067
     41 C          64.9683   91.8037   10.9767 C.ar    1  UNL1        0.0003
     42 C          65.4710   91.9087   12.3859 C.ar    1  UNL1        0.0006
     43 O          64.2558   91.0876   16.0737 O.3     1  UNL1       -0.4717
     44 C          63.5290   91.7887   17.1828 C.3     1  UNL1        0.2525
@<TRIPOS>BOND
     1    21    22    1
     2    22    19    1
     3    19    20    1
     4    19    15    1
     5    15    16    2
     6    15    17   am
     7     1    17    1
     8     1     2    1
     9     2     3    1
    10     3     4   am
    11     4     5    2
    12     4    24    1
    13    24    25    1
    14    25    26   ar
    15    26    27   ar
    16    27    28   ar
    17    28    29   ar
    18    29    30   ar
    19     3     6    1
    20     6     7   ar
    21     7     8   ar
    22     8     9   ar
    23     9    10   ar
    24    10    11   ar
    25    11    12    1
    26    12    31    1
    27    31    32    1
    28    32    33   ar
    29    33    43    1
    30    43    44    1
    31    33    34   ar
    32    34    35   ar
    33    35    36   ar
    34    36    37   ar
    35    37    38   ar
    36    38    39    1
    37    38    40   ar
    38    40    41   ar
    39    41    42   ar
    40    12    13   am
    41    13    14    2
    42    13     1    1
    43    30    25   ar
    44    11     6   ar
    45    42    32   ar
    46    42    36   ar
    47    22    23    1
    48    17    18    1
