@<TRIPOS>MOLECULE
*****
 26 28 0 0 0
SMALL
GASTEIGER

@<TRIPOS>ATOM
      1 C          61.6240   88.2741   10.2312 C.ar    1  UNL1        0.0064
      2 C          60.9687   89.3247    9.3845 C.ar    1  UNL1        0.0399
      3 C          59.9880   88.9271    8.3215 C.ar    1  UNL1        0.1675
      4 O          59.3327   89.9777    7.4748 O.3     1  UNL1       -0.5029
      5 C          59.6626   87.4789    8.1052 C.ar    1  UNL1        0.1676
      6 O          58.6818   87.0812    7.0422 O.3     1  UNL1       -0.5029
      7 C          60.3178   86.4284    8.9519 C.ar    1  UNL1        0.0428
      8 C          61.2986   86.8260   10.0149 C.ar    1  UNL1        0.0378
      9 H          59.5360   90.8823    7.6099 H       1  UNL1        0.2923
     10 H          58.2724   87.7375    6.5133 H       1  UNL1        0.2923
     11 C          61.9539   85.7754   10.8616 C.ar    1  UNL1        0.1454
     12 C          62.8422   84.6724   10.3675 C.ar    1  UNL1        0.0405
     13 C          63.2732   83.8586   11.5516 C.ar    1  UNL1        0.0376
     14 C          64.1517   82.6488   11.6719 C.ar    1  UNL1        0.0031
     15 C          64.4082   82.0391   13.0181 C.ar    1  UNL1        0.0002
     16 C          63.7863   82.6392   14.2441 C.ar    1  UNL1        0.0031
     17 C          62.9078   83.8491   14.1238 C.ar    1  UNL1        0.0375
     18 C          62.6513   84.4588   12.7776 C.ar    1  UNL1        0.1453
     19 O          61.8359   85.6434   12.3511 O.2     1  UNL1       -0.4535
     20 C          62.2820   89.8002   12.2283 C.2     1  UNL1        0.0819
     21 C          62.6048   88.6718   11.2943 C.2     1  UNL1        0.0068
     22 C          63.2627   90.1979   13.2914 C.2     1  UNL1        0.3414
     23 O          63.9085   91.5511   13.2476 O.2     1  UNL1       -0.2449
     24 O          63.5977   89.2424   14.3981 O.3     1  UNL1       -0.4454
     25 C          63.0875   88.5994   16.8631 C.3     1  UNL1        0.0513
     26 C          63.3801   89.6438   15.8269 C.3     1  UNL1        0.2089
@<TRIPOS>BOND
     1    25    26    1
     2    26    24    1
     3    24    22    1
     4    22    23    2
     5    22    20    1
     6    20    21    2
     7    21     1    1
     8     1     2   ar
     9     2     3   ar
    10     3     4    1
    11     3     5   ar
    12     5     6    1
    13     5     7   ar
    14     7     8   ar
    15     8    11    1
    16    11    12   ar
    17    12    13   ar
    18    13    14   ar
    19    14    15   ar
    20    15    16   ar
    21    16    17   ar
    22    17    18   ar
    23    18    19   ar
    24     8     1   ar
    25    19    11   ar
    26    18    13   ar
    27     4     9    1
    28     6    10    1
@<TRIPOS>MOLECULE
*****
 26 28 0 0 0
SMALL
GASTEIGER

@<TRIPOS>ATOM
      1 C          61.5331   86.9283    9.8025 C.ar    1  UNL1        0.0064
      2 C          60.6368   86.1422    8.8923 C.ar    1  UNL1        0.0399
      3 C          59.6634   86.8539    8.0002 C.ar    1  UNL1        0.1675
      4 O          58.7670   86.0678    7.0900 O.3     1  UNL1       -0.5029
      5 C          59.5862   88.3518    8.0185 C.ar    1  UNL1        0.1676
      6 O          58.6127   89.0636    7.1264 O.3     1  UNL1       -0.5029
      7 C          60.4825   89.1379    8.9287 C.ar    1  UNL1        0.0428
      8 C          61.4560   88.4262    9.8208 C.ar    1  UNL1        0.0378
      9 H          58.8152   85.1321    7.0786 H       1  UNL1        0.2923
     10 H          58.0528   88.5725    6.5578 H       1  UNL1        0.2923
     11 C          62.3523   89.2123   10.7310 C.ar    1  UNL1        0.1454
     12 C          63.0812   90.4744   10.3763 C.ar    1  UNL1        0.0405
     13 C          63.8565   90.9165   11.5819 C.ar    1  UNL1        0.0376
     14 C          64.7576   92.0917   11.8202 C.ar    1  UNL1        0.0031
     15 C          65.4089   92.2781   13.1584 C.ar    1  UNL1        0.0002
     16 C          65.1592   91.2893   14.2584 C.ar    1  UNL1        0.0031
     17 C          64.2582   90.1140   14.0200 C.ar    1  UNL1        0.0375
     18 C          63.6068   89.9277   12.6818 C.ar    1  UNL1        0.1453
     19 O          62.6772   88.8744   12.1559 O.2     1  UNL1       -0.4535
     20 C          62.0072   85.4019   11.8508 C.2     1  UNL1        0.0819
     21 C          62.5066   86.2165   10.6946 C.2     1  UNL1        0.0068
     22 C          62.9807   84.6901   12.7429 C.2     1  UNL1        0.3414
     23 O          63.7582   85.4594   13.7694 O.2     1  UNL1       -0.2449
     24 O          63.1766   83.2091   12.6084 O.3     1  UNL1       -0.4454
     25 C          64.2178   82.9159   10.2462 C.3     1  UNL1        0.0513
     26 C          64.2648   82.6736   11.7258 C.3     1  UNL1        0.2089
@<TRIPOS>BOND
     1    25    26    1
     2    26    24    1
     3    24    22    1
     4    22    23    2
     5    22    20    1
     6    20    21    2
     7    21     1    1
     8     1     2   ar
     9     2     3   ar
    10     3     4    1
    11     3     5   ar
    12     5     6    1
    13     5     7   ar
    14     7     8   ar
    15     8    11    1
    16    11    12   ar
    17    12    13   ar
    18    13    14   ar
    19    14    15   ar
    20    15    16   ar
    21    16    17   ar
    22    17    18   ar
    23    18    19   ar
    24     8     1   ar
    25    19    11   ar
    26    18    13   ar
    27     4     9    1
    28     6    10    1
@<TRIPOS>MOLECULE
*****
 26 28 0 0 0
SMALL
GASTEIGER

@<TRIPOS>ATOM
      1 C          61.4006   87.0616   10.2083 C.ar    1  UNL1        0.0064
      2 C          60.4690   86.3311    9.2871 C.ar    1  UNL1        0.0399
      3 C          59.6570   87.0935    8.2825 C.ar    1  UNL1        0.1675
      4 O          58.7254   86.3631    7.3613 O.3     1  UNL1       -0.5029
      5 C          59.7766   88.5864    8.1991 C.ar    1  UNL1        0.1676
      6 O          58.9646   89.3489    7.1944 O.3     1  UNL1       -0.5029
      7 C          60.7082   89.3168    9.1202 C.ar    1  UNL1        0.0428
      8 C          61.5202   88.5544   10.1249 C.ar    1  UNL1        0.0378
      9 H          58.6507   85.4305    7.4134 H       1  UNL1        0.2923
     10 H          58.3826   88.8926    6.6189 H       1  UNL1        0.2923
     11 C          62.4518   89.2849   11.0461 C.ar    1  UNL1        0.1454
     12 C          63.1681   90.5669   10.7408 C.ar    1  UNL1        0.0405
     13 C          63.9896   90.9359   11.9403 C.ar    1  UNL1        0.0376
     14 C          64.9007   92.0955   12.2147 C.ar    1  UNL1        0.0031
     15 C          65.6031   92.2011   13.5358 C.ar    1  UNL1        0.0002
     16 C          65.3946   91.1470   14.5825 C.ar    1  UNL1        0.0031
     17 C          64.4836   89.9875   14.3081 C.ar    1  UNL1        0.0375
     18 C          63.7811   89.8819   12.9870 C.ar    1  UNL1        0.1453
     19 O          62.8306   88.8615   12.4343 O.2     1  UNL1       -0.4535
     20 C          62.3950   84.8180   11.0613 C.2     1  UNL1        0.0819
     21 C          62.2126   86.2990   11.2130 C.2     1  UNL1        0.0068
     22 C          63.2070   84.0555   12.0659 C.2     1  UNL1        0.3414
     23 O          64.3411   83.1863   11.6094 O.2     1  UNL1       -0.2449
     24 O          62.8849   84.1621   13.5270 O.3     1  UNL1       -0.4454
     25 C          64.2943   86.1063   14.5188 C.3     1  UNL1        0.0513
     26 C          63.9247   84.6528   14.4903 C.3     1  UNL1        0.2089
@<TRIPOS>BOND
     1    25    26    1
     2    26    24    1
     3    24    22    1
     4    22    23    2
     5    22    20    1
     6    20    21    2
     7    21     1    1
     8     1     2   ar
     9     2     3   ar
    10     3     4    1
    11     3     5   ar
    12     5     6    1
    13     5     7   ar
    14     7     8   ar
    15     8    11    1
    16    11    12   ar
    17    12    13   ar
    18    13    14   ar
    19    14    15   ar
    20    15    16   ar
    21    16    17   ar
    22    17    18   ar
    23    18    19   ar
    24     8     1   ar
    25    19    11   ar
    26    18    13   ar
    27     4     9    1
    28     6    10    1
@<TRIPOS>MOLECULE
*****
 26 28 0 0 0
SMALL
GASTEIGER

@<TRIPOS>ATOM
      1 C          64.5262   90.5688   14.0439 C.ar    1  UNL1        0.0064
      2 C          65.4680   91.4069   14.8566 C.ar    1  UNL1        0.0399
      3 C          66.1334   92.6007   14.2385 C.ar    1  UNL1        0.1675
      4 O          67.0752   93.4389   15.0512 O.3     1  UNL1       -0.5029
      5 C          65.8569   92.9564   12.8078 C.ar    1  UNL1        0.1676
      6 O          66.5223   94.1503   12.1897 O.3     1  UNL1       -0.5029
      7 C          64.9150   92.1183   11.9951 C.ar    1  UNL1        0.0428
      8 C          64.2497   90.9244   12.6132 C.ar    1  UNL1        0.0378
      9 H          67.2479   93.2167   15.9450 H       1  UNL1        0.2923
     10 H          67.1106   94.6739   12.6973 H       1  UNL1        0.2923
     11 C          63.3078   90.0863   11.8005 C.ar    1  UNL1        0.1454
     12 C          62.3355   90.5933   10.7770 C.ar    1  UNL1        0.0405
     13 C          61.5997   89.4143   10.2126 C.ar    1  UNL1        0.0376
     14 C          60.5253   89.3064    9.1715 C.ar    1  UNL1        0.0031
     15 C          59.9684   87.9627    8.8050 C.ar    1  UNL1        0.0002
     16 C          60.4860   86.7270    9.4796 C.ar    1  UNL1        0.0031
     17 C          61.5604   86.8349   10.5207 C.ar    1  UNL1        0.0375
     18 C          62.1173   88.1786   10.8872 C.ar    1  UNL1        0.1453
     19 O          63.1730   88.5939   11.8686 O.2     1  UNL1       -0.4535
     20 C          64.5950   88.0700   14.7520 C.2     1  UNL1        0.0819
     21 C          63.8608   89.3749   14.6620 C.2     1  UNL1        0.0068
     22 C          63.9296   86.8761   15.3701 C.2     1  UNL1        0.3414
     23 O          63.0451   87.0476   16.5694 O.2     1  UNL1       -0.2449
     24 O          64.1487   85.5107   14.7889 O.3     1  UNL1       -0.4454
     25 C          64.0084   83.9798   12.6945 C.3     1  UNL1        0.0513
     26 C          63.4783   85.1266   13.5032 C.3     1  UNL1        0.2089
@<TRIPOS>BOND
     1    25    26    1
     2    26    24    1
     3    24    22    1
     4    22    23    2
     5    22    20    1
     6    20    21    2
     7    21     1    1
     8     1     2   ar
     9     2     3   ar
    10     3     4    1
    11     3     5   ar
    12     5     6    1
    13     5     7   ar
    14     7     8   ar
    15     8    11    1
    16    11    12   ar
    17    12    13   ar
    18    13    14   ar
    19    14    15   ar
    20    15    16   ar
    21    16    17   ar
    22    17    18   ar
    23    18    19   ar
    24     8     1   ar
    25    19    11   ar
    26    18    13   ar
    27     4     9    1
    28     6    10    1
@<TRIPOS>MOLECULE
*****
 26 28 0 0 0
SMALL
GASTEIGER

@<TRIPOS>ATOM
      1 C          63.2587   83.8829   13.9968 C.ar    1  UNL1        0.0064
      2 C          63.5305   82.5301   14.5851 C.ar    1  UNL1        0.0399
      3 C          63.3724   81.2999   13.7417 C.ar    1  UNL1        0.1675
      4 O          63.6442   79.9471   14.3300 O.3     1  UNL1       -0.5029
      5 C          62.9425   81.4224   12.3099 C.ar    1  UNL1        0.1676
      6 O          62.7843   80.1921   11.4663 O.3     1  UNL1       -0.5029
      7 C          62.6706   82.7752   11.7215 C.ar    1  UNL1        0.0428
      8 C          62.8287   84.0054   12.5650 C.ar    1  UNL1        0.0378
      9 H          63.9128   79.8706   15.2244 H       1  UNL1        0.2923
     10 H          62.9541   79.3471   11.8338 H       1  UNL1        0.2923
     11 C          62.5569   85.3582   11.9767 C.ar    1  UNL1        0.1454
     12 C          61.6925   85.6436   10.7845 C.ar    1  UNL1        0.0405
     13 C          61.7031   87.1249   10.5482 C.ar    1  UNL1        0.0376
     14 C          61.0322   87.9814    9.5157 C.ar    1  UNL1        0.0031
     15 C          61.2323   89.4679    9.5292 C.ar    1  UNL1        0.0002
     16 C          62.1033   90.0979   10.5754 C.ar    1  UNL1        0.0031
     17 C          62.7742   89.2414   11.6079 C.ar    1  UNL1        0.0375
     18 C          62.5741   87.7549   11.5944 C.ar    1  UNL1        0.1453
     19 O          63.1018   86.6630   12.4772 O.2     1  UNL1       -0.4535
     20 C          62.7082   85.2149   16.1584 C.2     1  UNL1        0.0819
     21 C          63.4168   85.1131   14.8403 C.2     1  UNL1        0.0068
     22 C          62.8663   86.4452   17.0020 C.2     1  UNL1        0.3414
     23 O          62.3864   86.4469   18.4231 O.2     1  UNL1       -0.2449
     24 O          63.5043   87.6737   16.4243 O.3     1  UNL1       -0.4454
     25 C          63.5034   90.2509   16.0952 C.3     1  UNL1        0.0513
     26 C          63.0025   89.0327   16.8131 C.3     1  UNL1        0.2089
@<TRIPOS>BOND
     1    25    26    1
     2    26    24    1
     3    24    22    1
     4    22    23    2
     5    22    20    1
     6    20    21    2
     7    21     1    1
     8     1     2   ar
     9     2     3   ar
    10     3     4    1
    11     3     5   ar
    12     5     6    1
    13     5     7   ar
    14     7     8   ar
    15     8    11    1
    16    11    12   ar
    17    12    13   ar
    18    13    14   ar
    19    14    15   ar
    20    15    16   ar
    21    16    17   ar
    22    17    18   ar
    23    18    19   ar
    24     8     1   ar
    25    19    11   ar
    26    18    13   ar
    27     4     9    1
    28     6    10    1
@<TRIPOS>MOLECULE
*****
 26 28 0 0 0
SMALL
GASTEIGER

@<TRIPOS>ATOM
      1 C          62.0980   87.7565   10.9681 C.ar    1  UNL1        0.0064
      2 C          61.1624   86.9472   10.1197 C.ar    1  UNL1        0.0399
      3 C          60.3369   87.6193    9.0629 C.ar    1  UNL1        0.1675
      4 O          59.4014   86.8101    8.2145 O.3     1  UNL1       -0.5029
      5 C          60.4470   89.1007    8.8546 C.ar    1  UNL1        0.1676
      6 O          59.6215   89.7728    7.7978 O.3     1  UNL1       -0.5029
      7 C          61.3825   89.9099    9.7030 C.ar    1  UNL1        0.0428
      8 C          62.2081   89.2378   10.7598 C.ar    1  UNL1        0.0378
      9 H          59.3326   85.8847    8.3446 H       1  UNL1        0.2923
     10 H          59.0370   89.2673    7.2678 H       1  UNL1        0.2923
     11 C          63.1436   90.0471   11.6082 C.ar    1  UNL1        0.1454
     12 C          63.4597   89.8006   13.0536 C.ar    1  UNL1        0.0405
     13 C          64.4388   90.8461   13.4989 C.ar    1  UNL1        0.0376
     14 C          65.1044   91.1005   14.8188 C.ar    1  UNL1        0.0031
     15 C          66.0592   92.2477   14.9684 C.ar    1  UNL1        0.0002
     16 C          66.3482   93.1404   13.7981 C.ar    1  UNL1        0.0031
     17 C          65.6826   92.8860   12.4783 C.ar    1  UNL1        0.0375
     18 C          64.7278   91.7388   12.3287 C.ar    1  UNL1        0.1453
     19 O          63.9274   91.2450   11.1602 O.2     1  UNL1       -0.4535
     20 C          62.7808   85.6103   12.2634 C.2     1  UNL1        0.0819
     21 C          62.9235   87.0843   12.0249 C.2     1  UNL1        0.0068
     22 C          63.6063   84.9382   13.3203 C.2     1  UNL1        0.3414
     23 O          63.5080   85.3881   14.7478 O.2     1  UNL1       -0.2449
     24 O          64.5301   83.8161   12.9495 O.3     1  UNL1       -0.4454
     25 C          64.3674   83.0299   10.4786 C.3     1  UNL1        0.0513
     26 C          64.1023   82.7961   11.9364 C.3     1  UNL1        0.2089
@<TRIPOS>BOND
     1    25    26    1
     2    26    24    1
     3    24    22    1
     4    22    23    2
     5    22    20    1
     6    20    21    2
     7    21     1    1
     8     1     2   ar
     9     2     3   ar
    10     3     4    1
    11     3     5   ar
    12     5     6    1
    13     5     7   ar
    14     7     8   ar
    15     8    11    1
    16    11    12   ar
    17    12    13   ar
    18    13    14   ar
    19    14    15   ar
    20    15    16   ar
    21    16    17   ar
    22    17    18   ar
    23    18    19   ar
    24     8     1   ar
    25    19    11   ar
    26    18    13   ar
    27     4     9    1
    28     6    10    1
@<TRIPOS>MOLECULE
*****
 26 28 0 0 0
SMALL
GASTEIGER

@<TRIPOS>ATOM
      1 C          63.6383   86.0397   13.5187 C.ar    1  UNL1        0.0064
      2 C          64.3576   85.2647   14.5826 C.ar    1  UNL1        0.0399
      3 C          64.2861   83.7665   14.5971 C.ar    1  UNL1        0.1675
      4 O          65.0054   82.9915   15.6610 O.3     1  UNL1       -0.5029
      5 C          63.4953   83.0433   13.5475 C.ar    1  UNL1        0.1676
      6 O          63.4237   81.5450   13.5619 O.3     1  UNL1       -0.5029
      7 C          62.7760   83.8183   12.4836 C.ar    1  UNL1        0.0428
      8 C          62.8475   85.3165   12.4691 C.ar    1  UNL1        0.0378
      9 H          65.4994   83.4433   16.3166 H       1  UNL1        0.2923
     10 H          63.8730   81.0609   14.2266 H       1  UNL1        0.2923
     11 C          62.1282   86.0915   11.4052 C.ar    1  UNL1        0.1454
     12 C          61.5246   85.5222   10.1556 C.ar    1  UNL1        0.0405
     13 C          60.9096   86.6507    9.3821 C.ar    1  UNL1        0.0376
     14 C          60.1749   86.6884    8.0749 C.ar    1  UNL1        0.0031
     15 C          59.6637   87.9930    7.5393 C.ar    1  UNL1        0.0002
     16 C          59.8873   89.2597    8.3109 C.ar    1  UNL1        0.0031
     17 C          60.6220   89.2220    9.6181 C.ar    1  UNL1        0.0375
     18 C          61.1331   87.9175   10.1537 C.ar    1  UNL1        0.1453
     19 O          61.8863   87.5718   11.4040 O.2     1  UNL1       -0.4535
     20 C          64.1355   88.2804   14.7362 C.2     1  UNL1        0.0819
     21 C          63.7099   87.5380   13.5043 C.2     1  UNL1        0.0068
     22 C          64.2070   89.7786   14.7218 C.2     1  UNL1        0.3414
     23 O          63.4740   90.5745   15.7607 O.2     1  UNL1       -0.2449
     24 O          65.0115   90.4810   13.6685 O.3     1  UNL1       -0.4454
     25 C          63.3602   90.8318   11.6936 C.3     1  UNL1        0.0513
     26 C          64.3324   91.3919   12.6892 C.3     1  UNL1        0.2089
@<TRIPOS>BOND
     1    25    26    1
     2    26    24    1
     3    24    22    1
     4    22    23    2
     5    22    20    1
     6    20    21    2
     7    21     1    1
     8     1     2   ar
     9     2     3   ar
    10     3     4    1
    11     3     5   ar
    12     5     6    1
    13     5     7   ar
    14     7     8   ar
    15     8    11    1
    16    11    12   ar
    17    12    13   ar
    18    13    14   ar
    19    14    15   ar
    20    15    16   ar
    21    16    17   ar
    22    17    18   ar
    23    18    19   ar
    24     8     1   ar
    25    19    11   ar
    26    18    13   ar
    27     4     9    1
    28     6    10    1
@<TRIPOS>MOLECULE
*****
 26 28 0 0 0
SMALL
GASTEIGER

@<TRIPOS>ATOM
      1 C          64.2816   90.8830   12.9724 C.ar    1  UNL1        0.0064
      2 C          65.2371   91.8204   13.6494 C.ar    1  UNL1        0.0399
      3 C          65.8579   92.9460   12.8764 C.ar    1  UNL1        0.1675
      4 O          66.8134   93.8834   13.5534 O.3     1  UNL1       -0.5029
      5 C          65.5233   93.1342   11.4264 C.ar    1  UNL1        0.1676
      6 O          66.1441   94.2598   10.6533 O.3     1  UNL1       -0.5029
      7 C          64.5678   92.1968   10.7494 C.ar    1  UNL1        0.0428
      8 C          63.9470   91.0712   11.5224 C.ar    1  UNL1        0.0378
      9 H          67.0224   93.7659   14.4592 H       1  UNL1        0.2923
     10 H          66.7409   94.8454   11.0762 H       1  UNL1        0.2923
     11 C          62.9915   90.1337   10.8454 C.ar    1  UNL1        0.1454
     12 C          61.8686   90.5271    9.9320 C.ar    1  UNL1        0.0405
     13 C          61.1743   89.2748    9.4850 C.ar    1  UNL1        0.0376
     14 C          59.9999   89.0467    8.5802 C.ar    1  UNL1        0.0031
     15 C          59.5194   87.6512    8.3125 C.ar    1  UNL1        0.0002
     16 C          60.2132   86.4839    8.9496 C.ar    1  UNL1        0.0031
     17 C          61.3876   86.7121    9.8545 C.ar    1  UNL1        0.0375
     18 C          61.8681   88.1075   10.1222 C.ar    1  UNL1        0.1453
     19 O          62.9912   88.6384   10.9629 O.2     1  UNL1       -0.4535
     20 C          64.5148   88.6297   14.2447 C.2     1  UNL1        0.0819
     21 C          63.6608   89.7574   13.7455 C.2     1  UNL1        0.0068
     22 C          63.8939   87.5041   15.0178 C.2     1  UNL1        0.3414
     23 O          63.8918   86.1158   14.4498 O.2     1  UNL1       -0.2449
     24 O          63.2753   87.7668   16.3587 O.3     1  UNL1       -0.4454
     25 C          62.6726   86.8063   18.6963 C.3     1  UNL1        0.0513
     26 C          62.8282   86.6200   17.2160 C.3     1  UNL1        0.2089
@<TRIPOS>BOND
     1    25    26    1
     2    26    24    1
     3    24    22    1
     4    22    23    2
     5    22    20    1
     6    20    21    2
     7    21     1    1
     8     1     2   ar
     9     2     3   ar
    10     3     4    1
    11     3     5   ar
    12     5     6    1
    13     5     7   ar
    14     7     8   ar
    15     8    11    1
    16    11    12   ar
    17    12    13   ar
    18    13    14   ar
    19    14    15   ar
    20    15    16   ar
    21    16    17   ar
    22    17    18   ar
    23    18    19   ar
    24     8     1   ar
    25    19    11   ar
    26    18    13   ar
    27     4     9    1
    28     6    10    1
@<TRIPOS>MOLECULE
*****
 26 28 0 0 0
SMALL
GASTEIGER

@<TRIPOS>ATOM
      1 C          62.7978   84.5022   11.7255 C.ar    1  UNL1        0.0064
      2 C          62.5487   83.0306   11.5763 C.ar    1  UNL1        0.0399
      3 C          62.7640   82.1115   12.7420 C.ar    1  UNL1        0.1675
      4 O          62.5149   80.6399   12.5928 O.3     1  UNL1       -0.5029
      5 C          63.2284   82.6640   14.0569 C.ar    1  UNL1        0.1676
      6 O          63.4438   81.7449   15.2227 O.3     1  UNL1       -0.5029
      7 C          63.4776   84.1357   14.2061 C.ar    1  UNL1        0.0428
      8 C          63.2623   85.0548   13.0404 C.ar    1  UNL1        0.0378
      9 H          62.2248   80.2948   11.7714 H       1  UNL1        0.2923
     10 H          63.2882   80.8256   15.1295 H       1  UNL1        0.2923
     11 C          63.5114   86.5264   13.1896 C.ar    1  UNL1        0.1454
     12 C          64.2186   87.1893   14.3344 C.ar    1  UNL1        0.0405
     13 C          64.2414   88.6661   14.0725 C.ar    1  UNL1        0.0376
     14 C          64.8037   89.8156   14.8550 C.ar    1  UNL1        0.0031
     15 C          64.6728   91.2150   14.3310 C.ar    1  UNL1        0.0002
     16 C          63.9797   91.4648   13.0244 C.ar    1  UNL1        0.0031
     17 C          63.4173   90.3153   12.2419 C.ar    1  UNL1        0.0375
     18 C          63.5482   88.9159   12.7660 C.ar    1  UNL1        0.1453
     19 O          63.0971   87.5935   12.2203 O.2     1  UNL1       -0.4535
     20 C          61.1979   85.8837   10.2150 C.2     1  UNL1        0.0819
     21 C          62.5825   85.4214   10.5598 C.2     1  UNL1        0.0068
     22 C          60.9825   86.8028    9.0492 C.2     1  UNL1        0.3414
     23 O          60.7396   86.2357    7.6820 O.2     1  UNL1       -0.2449
     24 O          61.0102   88.2889    9.2507 O.3     1  UNL1       -0.4454
     25 C          60.0561   90.3505   10.5116 C.3     1  UNL1        0.0513
     26 C          60.3985   88.8904   10.4812 C.3     1  UNL1        0.2089
@<TRIPOS>BOND
     1    25    26    1
     2    26    24    1
     3    24    22    1
     4    22    23    2
     5    22    20    1
     6    20    21    2
     7    21     1    1
     8     1     2   ar
     9     2     3   ar
    10     3     4    1
    11     3     5   ar
    12     5     6    1
    13     5     7   ar
    14     7     8   ar
    15     8    11    1
    16    11    12   ar
    17    12    13   ar
    18    13    14   ar
    19    14    15   ar
    20    15    16   ar
    21    16    17   ar
    22    17    18   ar
    23    18    19   ar
    24     8     1   ar
    25    19    11   ar
    26    18    13   ar
    27     4     9    1
    28     6    10    1
