@<TRIPOS>MOLECULE
*****
 33 36 0 0 0
SMALL
GASTEIGER

@<TRIPOS>ATOM
      1 N          63.4492   85.1568   14.2039 N.ar    1  UNL1       -0.1943
      2 C          64.3893   85.7638   15.2028 C.ar    1  UNL1        0.1013
      3 C          64.6135   87.1960   14.8177 C.ar    1  UNL1        0.0236
      4 C          63.8120   87.4743   13.5807 C.ar    1  UNL1        0.0374
      5 C          63.6444   88.7125   12.7507 C.ar    1  UNL1        0.0058
      6 C          62.7572   88.6903   11.5414 C.ar    1  UNL1        0.0344
      7 C          62.0376   87.4301   11.1622 C.ar    1  UNL1        0.1334
      8 N          62.2052   86.1919   11.9921 N.ar    1  UNL1       -0.2120
      9 C          63.0924   86.2140   13.2014 C.ar    1  UNL1        0.1648
     10 N          61.1503   87.4079    9.9528 N.pl3   1  UNL1       -0.2904
     11 C          60.8932   86.1163    9.2348 C.3     1  UNL1        0.1092
     12 C          60.0060   86.0942    8.0255 C.3     1  UNL1        0.0904
     13 N          59.3759   87.3637    7.5343 N.3     1  UNL1       -0.2946
     14 C          59.6330   88.6553    8.2523 C.3     1  UNL1        0.0904
     15 C          60.5202   88.6775    9.4616 C.3     1  UNL1        0.1092
     16 H          58.3668   87.2156    7.5469 H       1  UNL1        0.1233
     17 C          64.3640   89.9728   13.1300 C.ar    1  UNL1        0.0002
     18 C          64.4729   91.0995   12.1457 C.ar    1  UNL1       -0.0001
     19 C          65.1925   92.3597   12.5249 C.ar    1  UNL1        0.0039
     20 C          65.8031   92.4934   13.8885 C.ar    1  UNL1        0.0714
     21 C          65.6942   91.3668   14.8728 C.ar    1  UNL1        0.0039
     22 C          64.9746   90.1064   14.4935 C.ar    1  UNL1       -0.0001
     23 C          66.5227   93.7536   14.2677 C.3     1  UNL1        0.4186
     24 F          67.2422   95.0140   14.6469 F       1  UNL1       -0.1659
     25 F          66.7542   93.2070   15.6452 F       1  UNL1       -0.1659
     26 F          66.2912   94.3004   12.8902 F       1  UNL1       -0.1659
     27 S          62.9530   83.7413   14.2070 S.O2    1  UNL1        0.0675
     28 O          64.3108   83.2644   13.7839 O.2     1  UNL1       -0.1521
     29 O          61.5952   84.2181   14.6301 O.2     1  UNL1       -0.1521
     30 C          62.4568   82.3257   14.2101 C.3     1  UNL1        0.1751
     31 C          62.5839   82.2182   11.6174 C.3     1  UNL1        0.0019
     32 C          62.4679   81.5243   12.9422 C.3     1  UNL1        0.0258
     33 C          62.3629   80.0290   12.9991 C.3     1  UNL1        0.0019
@<TRIPOS>BOND
     1    31    32    1
     2    32    33    1
     3    32    30    1
     4    30    27    1
     5    27    28    2
     6    27    29    2
     7    27     1    1
     8     1     2   ar
     9     2     3   ar
    10     3     4   ar
    11     4     5   ar
    12     5    17    1
    13    17    18   ar
    14    18    19   ar
    15    19    20   ar
    16    20    23    1
    17    23    24    1
    18    23    25    1
    19    23    26    1
    20    20    21   ar
    21    21    22   ar
    22     5     6   ar
    23     6     7   ar
    24     7    10    1
    25    10    11    1
    26    11    12    1
    27    12    13    1
    28    13    14    1
    29    14    15    1
    30     7     8   ar
    31     8     9   ar
    32     9     1   ar
    33     9     4   ar
    34    22    17   ar
    35    15    10    1
    36    13    16    1
@<TRIPOS>MOLECULE
*****
 33 36 0 0 0
SMALL
GASTEIGER

@<TRIPOS>ATOM
      1 N          64.8888   91.2565   14.5735 N.ar    1  UNL1       -0.1943
      2 C          63.9543   90.1074   14.8110 C.ar    1  UNL1        0.1013
      3 C          63.2721   89.7890   13.5136 C.ar    1  UNL1        0.0236
      4 C          63.7849   90.7413   12.4743 C.ar    1  UNL1        0.0374
      5 C          63.4712   90.8997   11.0161 C.ar    1  UNL1        0.0058
      6 C          64.1566   91.9652   10.2129 C.ar    1  UNL1        0.0344
      7 C          65.1557   92.8721   10.8680 C.ar    1  UNL1        0.1334
      8 N          65.4695   92.7136   12.3262 N.ar    1  UNL1       -0.2120
      9 C          64.7841   91.6482   13.1294 C.ar    1  UNL1        0.1648
     10 N          65.8412   93.9376   10.0647 N.pl3   1  UNL1       -0.2904
     11 C          67.0685   93.6043    9.2694 C.3     1  UNL1        0.1092
     12 C          67.7539   94.6697    8.4662 C.3     1  UNL1        0.0904
     13 N          67.2120   96.0684    8.4585 N.3     1  UNL1       -0.2946
     14 C          65.9847   96.4017    9.2538 C.3     1  UNL1        0.0904
     15 C          65.2993   95.3362   10.0570 C.3     1  UNL1        0.1092
     16 H          67.0045   96.2984    7.4866 H       1  UNL1        0.1233
     17 C          62.4720   89.9928   10.3610 C.ar    1  UNL1        0.0002
     18 C          62.8292   88.5637   10.0773 C.ar    1  UNL1       -0.0001
     19 C          61.8302   87.6568    9.4222 C.ar    1  UNL1        0.0039
     20 C          60.4738   88.1788    9.0508 C.ar    1  UNL1        0.0714
     21 C          60.1166   89.6077    9.3344 C.ar    1  UNL1        0.0039
     22 C          61.1158   90.5148    9.9895 C.ar    1  UNL1       -0.0001
     23 C          59.4747   87.2719    8.3957 C.3     1  UNL1        0.4186
     24 F          58.4756   86.3649    7.7406 F       1  UNL1       -0.1659
     25 F          60.1032   86.0902    9.0730 F       1  UNL1       -0.1659
     26 F          58.8461   88.4535    7.7184 F       1  UNL1       -0.1659
     27 S          65.7727   91.9007   15.6000 S.O2    1  UNL1        0.0675
     28 O          64.5622   92.4308   16.3097 O.2     1  UNL1       -0.1521
     29 O          66.9832   91.3706   14.8903 O.2     1  UNL1       -0.1521
     30 C          66.6567   92.5449   16.6265 C.3     1  UNL1        0.1751
     31 C          68.3973   94.1751   15.5955 C.3     1  UNL1        0.0019
     32 C          68.0780   92.8826   16.2865 C.3     1  UNL1        0.0258
     33 C          69.1803   91.9276   16.6376 C.3     1  UNL1        0.0019
@<TRIPOS>BOND
     1    31    32    1
     2    32    33    1
     3    32    30    1
     4    30    27    1
     5    27    28    2
     6    27    29    2
     7    27     1    1
     8     1     2   ar
     9     2     3   ar
    10     3     4   ar
    11     4     5   ar
    12     5    17    1
    13    17    18   ar
    14    18    19   ar
    15    19    20   ar
    16    20    23    1
    17    23    24    1
    18    23    25    1
    19    23    26    1
    20    20    21   ar
    21    21    22   ar
    22     5     6   ar
    23     6     7   ar
    24     7    10    1
    25    10    11    1
    26    11    12    1
    27    12    13    1
    28    13    14    1
    29    14    15    1
    30     7     8   ar
    31     8     9   ar
    32     9     1   ar
    33     9     4   ar
    34    22    17   ar
    35    15    10    1
    36    13    16    1
@<TRIPOS>MOLECULE
*****
 33 36 0 0 0
SMALL
GASTEIGER

@<TRIPOS>ATOM
      1 N          63.9048   88.9531   13.4040 N.ar    1  UNL1       -0.1943
      2 C          64.5155   88.0176   14.4048 C.ar    1  UNL1        0.1013
      3 C          64.0516   86.6278   14.0836 C.ar    1  UNL1        0.0236
      4 C          63.1541   86.7044   12.8842 C.ar    1  UNL1        0.0374
      5 C          62.4077   85.6512   12.1202 C.ar    1  UNL1        0.0058
      6 C          61.5706   86.0351   10.9362 C.ar    1  UNL1        0.0344
      7 C          61.4799   87.4722   10.5162 C.ar    1  UNL1        0.1334
      8 N          62.2263   88.5255   11.2802 N.ar    1  UNL1       -0.2120
      9 C          63.0634   88.1415   12.4642 C.ar    1  UNL1        0.1648
     10 N          60.6427   87.8562    9.3322 N.pl3   1  UNL1       -0.2904
     11 C          60.5612   89.2918    8.9052 C.3     1  UNL1        0.1092
     12 C          59.7241   89.6757    7.7212 C.3     1  UNL1        0.0904
     13 N          58.9685   88.6240    6.9642 N.3     1  UNL1       -0.2946
     14 C          59.0500   87.1884    7.3912 C.3     1  UNL1        0.0904
     15 C          59.8871   86.8044    8.5752 C.3     1  UNL1        0.1092
     16 H          59.2963   88.6632    5.9991 H       1  UNL1        0.1233
     17 C          62.4984   84.2140   12.5402 C.ar    1  UNL1        0.0002
     18 C          62.7956   83.1526   11.5227 C.ar    1  UNL1       -0.0001
     19 C          62.8863   81.7155   11.9427 C.ar    1  UNL1        0.0039
     20 C          62.6798   81.3397   13.3801 C.ar    1  UNL1        0.0714
     21 C          62.3826   82.4011   14.3975 C.ar    1  UNL1        0.0039
     22 C          62.2919   83.8383   13.9776 C.ar    1  UNL1       -0.0001
     23 C          62.7705   79.9026   13.8001 C.3     1  UNL1        0.4186
     24 F          62.8612   78.4655   14.2201 F       1  UNL1       -0.1659
     25 F          61.3195   79.7145   13.4697 F       1  UNL1       -0.1659
     26 F          64.2215   80.0907   14.1305 F       1  UNL1       -0.1659
     27 S          64.1010   90.4393   13.3521 S.O2    1  UNL1        0.0675
     28 O          65.3444   90.3041   14.1802 O.2     1  UNL1       -0.1521
     29 O          62.8577   90.5746   12.5239 O.2     1  UNL1       -0.1521
     30 C          64.2973   91.9255   13.3001 C.3     1  UNL1        0.1751
     31 C          65.2653   92.3019   10.9187 C.3     1  UNL1        0.0019
     32 C          65.3451   92.5128   12.4017 C.3     1  UNL1        0.0258
     33 C          66.4727   93.3109   12.9862 C.3     1  UNL1        0.0019
@<TRIPOS>BOND
     1    31    32    1
     2    32    33    1
     3    32    30    1
     4    30    27    1
     5    27    28    2
     6    27    29    2
     7    27     1    1
     8     1     2   ar
     9     2     3   ar
    10     3     4   ar
    11     4     5   ar
    12     5    17    1
    13    17    18   ar
    14    18    19   ar
    15    19    20   ar
    16    20    23    1
    17    23    24    1
    18    23    25    1
    19    23    26    1
    20    20    21   ar
    21    21    22   ar
    22     5     6   ar
    23     6     7   ar
    24     7    10    1
    25    10    11    1
    26    11    12    1
    27    12    13    1
    28    13    14    1
    29    14    15    1
    30     7     8   ar
    31     8     9   ar
    32     9     1   ar
    33     9     4   ar
    34    22    17   ar
    35    15    10    1
    36    13    16    1
@<TRIPOS>MOLECULE
*****
 33 36 0 0 0
SMALL
GASTEIGER

@<TRIPOS>ATOM
      1 N          61.6708   89.5210   11.0111 N.ar    1  UNL1       -0.1943
      2 C          62.0422   90.9715   10.9207 C.ar    1  UNL1        0.1013
      3 C          63.1516   91.2277   11.8971 C.ar    1  UNL1        0.0236
      4 C          63.4660   89.9355   12.5911 C.ar    1  UNL1        0.0374
      5 C          64.4673   89.5830   13.6508 C.ar    1  UNL1        0.0058
      6 C          64.5534   88.1758   14.1630 C.ar    1  UNL1        0.0344
      7 C          63.6382   87.1211   13.6154 C.ar    1  UNL1        0.1334
      8 N          62.6368   87.4735   12.5556 N.ar    1  UNL1       -0.2120
      9 C          62.5507   88.8807   12.0435 C.ar    1  UNL1        0.1648
     10 N          63.7244   85.7138   14.1276 N.pl3   1  UNL1       -0.2904
     11 C          63.5966   85.4414   15.5971 C.3     1  UNL1        0.1092
     12 C          63.6828   84.0342   16.1093 C.3     1  UNL1        0.0904
     13 N          63.8966   82.8994   15.1519 N.3     1  UNL1       -0.2946
     14 C          64.0244   83.1718   13.6824 C.3     1  UNL1        0.0904
     15 C          63.9382   84.5790   13.1703 C.3     1  UNL1        0.1092
     16 H          63.1062   82.2649   15.2661 H       1  UNL1        0.1233
     17 C          65.3825   90.6378   14.1984 C.ar    1  UNL1        0.0002
     18 C          66.6403   90.9949   13.4631 C.ar    1  UNL1       -0.0001
     19 C          67.5555   92.0495   14.0106 C.ar    1  UNL1        0.0039
     20 C          67.2130   92.7473   15.2936 C.ar    1  UNL1        0.0714
     21 C          65.9553   92.3903   16.0289 C.ar    1  UNL1        0.0039
     22 C          65.0400   91.3355   15.4814 C.ar    1  UNL1       -0.0001
     23 C          68.1282   93.8020   15.8412 C.3     1  UNL1        0.4186
     24 F          69.0434   94.8568   16.3887 F       1  UNL1       -0.1659
     25 F          68.7862   92.7768   16.7163 F       1  UNL1       -0.1659
     26 F          67.4702   94.8274   14.9660 F       1  UNL1       -0.1659
     27 S          60.6064   88.8318   10.2099 S.O2    1  UNL1        0.0675
     28 O          60.0186   88.2726   11.4716 O.2     1  UNL1       -0.1521
     29 O          61.1941   89.3909    8.9481 O.2     1  UNL1       -0.1521
     30 C          59.5419   88.1426    9.4086 C.3     1  UNL1        0.1751
     31 C          59.0497   86.5215    7.4389 C.3     1  UNL1        0.0019
     32 C          59.8715   86.9004    8.6352 C.3     1  UNL1        0.0258
     33 C          61.0230   86.0369    9.0581 C.3     1  UNL1        0.0019
@<TRIPOS>BOND
     1    31    32    1
     2    32    33    1
     3    32    30    1
     4    30    27    1
     5    27    28    2
     6    27    29    2
     7    27     1    1
     8     1     2   ar
     9     2     3   ar
    10     3     4   ar
    11     4     5   ar
    12     5    17    1
    13    17    18   ar
    14    18    19   ar
    15    19    20   ar
    16    20    23    1
    17    23    24    1
    18    23    25    1
    19    23    26    1
    20    20    21   ar
    21    21    22   ar
    22     5     6   ar
    23     6     7   ar
    24     7    10    1
    25    10    11    1
    26    11    12    1
    27    12    13    1
    28    13    14    1
    29    14    15    1
    30     7     8   ar
    31     8     9   ar
    32     9     1   ar
    33     9     4   ar
    34    22    17   ar
    35    15    10    1
    36    13    16    1
@<TRIPOS>MOLECULE
*****
 33 36 0 0 0
SMALL
GASTEIGER

@<TRIPOS>ATOM
      1 N          65.6597   92.1665   12.6851 N.ar    1  UNL1       -0.1943
      2 C          65.2948   92.6660   11.3186 C.ar    1  UNL1        0.1013
      3 C          64.1915   91.7995   10.7876 C.ar    1  UNL1        0.0236
      4 C          63.8745   90.7645   11.8260 C.ar    1  UNL1        0.0374
      5 C          62.8768   89.6448   11.8553 C.ar    1  UNL1        0.0058
      6 C          62.7865   88.7520   13.0572 C.ar    1  UNL1        0.0344
      7 C          63.6938   88.9788   14.2298 C.ar    1  UNL1        0.1334
      8 N          64.6915   90.0985   14.2007 N.ar    1  UNL1       -0.2120
      9 C          64.7819   90.9914   12.9987 C.ar    1  UNL1        0.1648
     10 N          63.6034   88.0859   15.4318 N.pl3   1  UNL1       -0.2904
     11 C          63.0813   88.6263   16.7300 C.3     1  UNL1        0.1092
     12 C          62.9909   87.7334   17.9319 C.3     1  UNL1        0.0904
     13 N          63.4228   86.3002   17.8357 N.3     1  UNL1       -0.2946
     14 C          63.9450   85.7598   16.5375 C.3     1  UNL1        0.0904
     15 C          64.0353   86.6526   15.3356 C.3     1  UNL1        0.1092
     16 H          62.6143   85.7315   18.0874 H       1  UNL1        0.1233
     17 C          61.9694   89.4180   10.6826 C.ar    1  UNL1        0.0002
     18 C          60.9169   90.4310   10.3416 C.ar    1  UNL1       -0.0001
     19 C          60.0096   90.2042    9.1690 C.ar    1  UNL1        0.0039
     20 C          60.1546   88.9643    8.3372 C.ar    1  UNL1        0.0714
     21 C          61.2070   87.9514    8.6782 C.ar    1  UNL1        0.0039
     22 C          62.1144   88.1781    9.8509 C.ar    1  UNL1       -0.0001
     23 C          59.2472   88.7375    7.1646 C.3     1  UNL1        0.4186
     24 F          58.3398   88.5107    5.9919 F       1  UNL1       -0.1659
     25 F          59.8688   89.9054    6.4577 F       1  UNL1       -0.1659
     26 F          58.6256   87.5696    7.8714 F       1  UNL1       -0.1659
     27 S          66.7168   92.7413   13.5808 S.O2    1  UNL1        0.0675
     28 O          65.8540   93.9432   13.8278 O.2     1  UNL1       -0.1521
     29 O          67.5796   91.5394   13.3338 O.2     1  UNL1       -0.1521
     30 C          67.7739   93.3161   14.4765 C.3     1  UNL1        0.1751
     31 C          66.7342   92.5065   16.7155 C.3     1  UNL1        0.0019
     32 C          67.9411   92.7916   15.8717 C.3     1  UNL1        0.0258
     33 C          69.3154   92.5522   16.4233 C.3     1  UNL1        0.0019
@<TRIPOS>BOND
     1    31    32    1
     2    32    33    1
     3    32    30    1
     4    30    27    1
     5    27    28    2
     6    27    29    2
     7    27     1    1
     8     1     2   ar
     9     2     3   ar
    10     3     4   ar
    11     4     5   ar
    12     5    17    1
    13    17    18   ar
    14    18    19   ar
    15    19    20   ar
    16    20    23    1
    17    23    24    1
    18    23    25    1
    19    23    26    1
    20    20    21   ar
    21    21    22   ar
    22     5     6   ar
    23     6     7   ar
    24     7    10    1
    25    10    11    1
    26    11    12    1
    27    12    13    1
    28    13    14    1
    29    14    15    1
    30     7     8   ar
    31     8     9   ar
    32     9     1   ar
    33     9     4   ar
    34    22    17   ar
    35    15    10    1
    36    13    16    1
@<TRIPOS>MOLECULE
*****
 33 36 0 0 0
SMALL
GASTEIGER

@<TRIPOS>ATOM
      1 N          63.9396   87.2279   14.2068 N.ar    1  UNL1       -0.1943
      2 C          64.4860   85.9641   14.8020 C.ar    1  UNL1        0.1013
      3 C          64.0905   84.8236   13.9116 C.ar    1  UNL1        0.0236
      4 C          63.2996   85.3825   12.7661 C.ar    1  UNL1        0.0374
      5 C          62.6523   84.7303   11.5805 C.ar    1  UNL1        0.0058
      6 C          61.9118   85.5641   10.5773 C.ar    1  UNL1        0.0344
      7 C          61.8186   87.0500   10.7597 C.ar    1  UNL1        0.1334
      8 N          62.4659   87.7022   11.9454 N.ar    1  UNL1       -0.2120
      9 C          63.2064   86.8684   12.9485 C.ar    1  UNL1        0.1648
     10 N          61.0780   87.8838    9.7564 N.pl3   1  UNL1       -0.2904
     11 C          61.1272   89.3805    9.8427 C.3     1  UNL1        0.1092
     12 C          60.3867   90.2143    8.8395 C.3     1  UNL1        0.0904
     13 N          59.5969   89.5513    7.7500 N.3     1  UNL1       -0.2946
     14 C          59.5477   88.0546    7.6638 C.3     1  UNL1        0.0904
     15 C          60.2883   87.2209    8.6670 C.3     1  UNL1        0.1092
     16 H          59.9787   89.8848    6.8649 H       1  UNL1        0.1233
     17 C          62.7456   83.2444   11.3981 C.ar    1  UNL1        0.0002
     18 C          63.3968   82.6788   10.1707 C.ar    1  UNL1       -0.0001
     19 C          63.4900   81.1929    9.9883 C.ar    1  UNL1        0.0039
     20 C          62.9321   80.2724   11.0331 C.ar    1  UNL1        0.0714
     21 C          62.2809   80.8380   12.2603 C.ar    1  UNL1        0.0039
     22 C          62.1876   82.3240   12.4428 C.ar    1  UNL1       -0.0001
     23 C          63.0253   78.7866   10.8506 C.3     1  UNL1        0.4186
     24 F          63.1185   77.3006   10.6682 F       1  UNL1       -0.1659
     25 F          63.2611   78.9817    9.3822 F       1  UNL1       -0.1659
     26 F          62.7894   78.5914   12.3191 F       1  UNL1       -0.1659
     27 S          64.0985   88.6087   14.7708 S.O2    1  UNL1        0.0675
     28 O          64.6513   89.0810   13.4587 O.2     1  UNL1       -0.1521
     29 O          63.5457   88.1365   16.0828 O.2     1  UNL1       -0.1521
     30 C          64.2574   89.9895   15.3347 C.3     1  UNL1        0.1751
     31 C          66.2443   91.6165   14.9407 C.3     1  UNL1        0.0019
     32 C          64.9161   91.0619   14.5185 C.3     1  UNL1        0.0258
     33 C          64.2465   91.5796   13.2801 C.3     1  UNL1        0.0019
@<TRIPOS>BOND
     1    31    32    1
     2    32    33    1
     3    32    30    1
     4    30    27    1
     5    27    28    2
     6    27    29    2
     7    27     1    1
     8     1     2   ar
     9     2     3   ar
    10     3     4   ar
    11     4     5   ar
    12     5    17    1
    13    17    18   ar
    14    18    19   ar
    15    19    20   ar
    16    20    23    1
    17    23    24    1
    18    23    25    1
    19    23    26    1
    20    20    21   ar
    21    21    22   ar
    22     5     6   ar
    23     6     7   ar
    24     7    10    1
    25    10    11    1
    26    11    12    1
    27    12    13    1
    28    13    14    1
    29    14    15    1
    30     7     8   ar
    31     8     9   ar
    32     9     1   ar
    33     9     4   ar
    34    22    17   ar
    35    15    10    1
    36    13    16    1
@<TRIPOS>MOLECULE
*****
 33 36 0 0 0
SMALL
GASTEIGER

@<TRIPOS>ATOM
      1 N          59.8917   88.2106    8.1276 N.ar    1  UNL1       -0.1943
      2 C          59.5051   86.7642    8.0364 C.ar    1  UNL1        0.1013
      3 C          60.3256   86.0012    9.0337 C.ar    1  UNL1        0.0236
      4 C          61.2194   86.9761    9.7413 C.ar    1  UNL1        0.0374
      5 C          62.2428   86.7969   10.8232 C.ar    1  UNL1        0.0058
      6 C          62.9980   87.9832   11.3451 C.ar    1  UNL1        0.0344
      7 C          62.7298   89.3486   10.7852 C.ar    1  UNL1        0.1334
      8 N          61.7064   89.5279    9.7033 N.ar    1  UNL1       -0.2120
      9 C          60.9512   88.3416    9.1813 C.ar    1  UNL1        0.1648
     10 N          63.4851   90.5349   11.3072 N.pl3   1  UNL1       -0.2904
     11 C          63.9449   91.6059   10.3630 C.3     1  UNL1        0.1092
     12 C          64.7001   92.7922   10.8849 C.3     1  UNL1        0.0904
     13 N          64.9955   92.9074   12.3510 N.3     1  UNL1       -0.2946
     14 C          64.5357   91.8364   13.2952 C.3     1  UNL1        0.0904
     15 C          63.7805   90.6502   12.7733 C.3     1  UNL1        0.1092
     16 H          64.5744   93.7805   12.6685 H       1  UNL1        0.1233
     17 C          62.5110   85.4315   11.3832 C.ar    1  UNL1        0.0002
     18 C          62.3196   85.1707   12.8480 C.ar    1  UNL1       -0.0001
     19 C          62.5878   83.8053   13.4080 C.ar    1  UNL1        0.0039
     20 C          63.0474   82.7005   12.5033 C.ar    1  UNL1        0.0714
     21 C          63.2388   82.9614   11.0386 C.ar    1  UNL1        0.0039
     22 C          62.9706   84.3268   10.4785 C.ar    1  UNL1       -0.0001
     23 C          63.3156   81.3352   13.0633 C.3     1  UNL1        0.4186
     24 F          63.5838   79.9697   13.6233 F       1  UNL1       -0.1659
     25 F          63.8753   81.9559   14.3088 F       1  UNL1       -0.1659
     26 F          62.7558   80.7143   11.8178 F       1  UNL1       -0.1659
     27 S          59.3193   89.3296    7.3089 S.O2    1  UNL1        0.0675
     28 O          59.1301   88.3891    6.1558 O.2     1  UNL1       -0.1521
     29 O          59.5084   90.2701    8.4621 O.2     1  UNL1       -0.1521
     30 C          58.7469   90.4486    6.4902 C.3     1  UNL1        0.1751
     31 C          60.9889   90.6786    5.1979 C.3     1  UNL1        0.0019
     32 C          59.5398   91.0312    5.3581 C.3     1  UNL1        0.0258
     33 C          58.8835   91.9664    4.3861 C.3     1  UNL1        0.0019
@<TRIPOS>BOND
     1    31    32    1
     2    32    33    1
     3    32    30    1
     4    30    27    1
     5    27    28    2
     6    27    29    2
     7    27     1    1
     8     1     2   ar
     9     2     3   ar
    10     3     4   ar
    11     4     5   ar
    12     5    17    1
    13    17    18   ar
    14    18    19   ar
    15    19    20   ar
    16    20    23    1
    17    23    24    1
    18    23    25    1
    19    23    26    1
    20    20    21   ar
    21    21    22   ar
    22     5     6   ar
    23     6     7   ar
    24     7    10    1
    25    10    11    1
    26    11    12    1
    27    12    13    1
    28    13    14    1
    29    14    15    1
    30     7     8   ar
    31     8     9   ar
    32     9     1   ar
    33     9     4   ar
    34    22    17   ar
    35    15    10    1
    36    13    16    1
@<TRIPOS>MOLECULE
*****
 33 36 0 0 0
SMALL
GASTEIGER

@<TRIPOS>ATOM
      1 N          64.9184   91.1412   13.7355 N.ar    1  UNL1       -0.1943
      2 C          64.3976   92.0759   12.6843 C.ar    1  UNL1        0.1013
      3 C          63.4961   91.2948   11.7749 C.ar    1  UNL1        0.0236
      4 C          63.4597   89.8772   12.2640 C.ar    1  UNL1        0.0374
      5 C          62.7398   88.6606   11.7626 C.ar    1  UNL1        0.0058
      6 C          62.8989   87.3491   12.4729 C.ar    1  UNL1        0.0344
      7 C          63.7779   87.2542   13.6845 C.ar    1  UNL1        0.1334
      8 N          64.4979   88.4708   14.1860 N.ar    1  UNL1       -0.2120
      9 C          64.3388   89.7824   13.4757 C.ar    1  UNL1        0.1648
     10 N          63.9370   85.9425   14.3949 N.pl3   1  UNL1       -0.2904
     11 C          64.2625   84.7025   13.6162 C.3     1  UNL1        0.1092
     12 C          64.4215   83.3910   14.3265 C.3     1  UNL1        0.0904
     13 N          64.2552   83.3195   15.8155 N.3     1  UNL1       -0.2946
     14 C          63.9297   84.5595   16.5942 C.3     1  UNL1        0.0904
     15 C          63.7706   85.8710   15.8839 C.3     1  UNL1        0.1092
     16 H          65.1306   82.9563   16.1925 H       1  UNL1        0.1233
     17 C          61.8607   88.7555   10.5509 C.ar    1  UNL1        0.0002
     18 C          61.7183   87.5772    9.6334 C.ar    1  UNL1       -0.0001
     19 C          60.8393   87.6721    8.4218 C.ar    1  UNL1        0.0039
     20 C          60.1026   88.9452    8.1274 C.ar    1  UNL1        0.0714
     21 C          60.2450   90.1234    9.0448 C.ar    1  UNL1        0.0039
     22 C          61.1241   90.0286   10.2565 C.ar    1  UNL1       -0.0001
     23 C          59.2236   89.0400    6.9157 C.3     1  UNL1        0.4186
     24 F          58.3445   89.1349    5.7040 F       1  UNL1       -0.1659
     25 F          58.3739   87.9228    7.4447 F       1  UNL1       -0.1659
     26 F          60.0732   90.1573    6.3867 F       1  UNL1       -0.1659
     27 S          65.8545   91.5020   14.8506 S.O2    1  UNL1        0.0675
     28 O          64.6840   91.8626   15.7166 O.2     1  UNL1       -0.1521
     29 O          67.0251   91.1414   13.9847 O.2     1  UNL1       -0.1521
     30 C          66.7906   91.8628   15.9658 C.3     1  UNL1        0.1751
     31 C          67.6210   94.1111   14.9630 C.3     1  UNL1        0.0019
     32 C          67.8943   92.8505   15.7286 C.3     1  UNL1        0.0258
     33 C          69.2715   92.5775   16.2569 C.3     1  UNL1        0.0019
@<TRIPOS>BOND
     1    31    32    1
     2    32    33    1
     3    32    30    1
     4    30    27    1
     5    27    28    2
     6    27    29    2
     7    27     1    1
     8     1     2   ar
     9     2     3   ar
    10     3     4   ar
    11     4     5   ar
    12     5    17    1
    13    17    18   ar
    14    18    19   ar
    15    19    20   ar
    16    20    23    1
    17    23    24    1
    18    23    25    1
    19    23    26    1
    20    20    21   ar
    21    21    22   ar
    22     5     6   ar
    23     6     7   ar
    24     7    10    1
    25    10    11    1
    26    11    12    1
    27    12    13    1
    28    13    14    1
    29    14    15    1
    30     7     8   ar
    31     8     9   ar
    32     9     1   ar
    33     9     4   ar
    34    22    17   ar
    35    15    10    1
    36    13    16    1
