@<TRIPOS>MOLECULE
*****
 49 55 0 0 0
SMALL
GASTEIGER

@<TRIPOS>ATOM
      1 C          59.3596   89.0573    7.4597 C.3     1  UNL1        0.1543
      2 O          59.4631   88.8828   10.4528 O.2     1  UNL1       -0.2526
      3 C          60.5483   89.5994    9.7053 C.2     1  UNL1        0.3043
      4 N          60.4966   89.6866    8.2088 N.am    1  UNL1       -0.2822
      5 N          61.6852   90.2288   10.4545 N.am    1  UNL1       -0.2641
      6 C          61.7369   90.1415   11.9510 C.3     1  UNL1        0.0966
      7 C          62.8740   90.7709   12.7001 C.3     1  UNL1        0.0415
      8 C          63.9592   91.4876   11.9527 C.3     1  UNL1        0.0806
      9 C          63.9074   91.5748   10.4561 C.3     1  UNL1        0.0415
     10 C          62.7705   90.9454    9.7070 C.3     1  UNL1        0.0966
     11 H          61.2088   90.1570    7.7182 H       1  UNL1        0.1514
     12 N          65.0961   92.1169   12.7018 N.am    1  UNL1       -0.2613
     13 C          65.6342   91.4604   13.9385 C.3     1  UNL1        0.1228
     14 C          66.7712   92.0898   14.6876 C.ar    1  UNL1        0.0112
     15 C          67.3093   91.4333   15.9243 C.ar    1  UNL1       -0.0014
     16 C          68.4462   92.0627   16.6734 C.ar    1  UNL1       -0.0002
     17 C          69.0451   93.3487   16.1859 C.ar    1  UNL1        0.0013
     18 C          68.5070   94.0052   14.9492 C.ar    1  UNL1        0.0144
     19 C          67.3700   93.3758   14.2000 C.ar    1  UNL1        0.0492
     20 N          66.8320   94.0323   12.9633 N.am    1  UNL1       -0.2684
     21 C          65.6950   93.4029   12.2142 C.2     1  UNL1        0.3079
     22 O          65.1569   94.0594   10.9775 O.2     1  UNL1       -0.2522
     23 H          67.2250   94.8763   12.6433 H       1  UNL1        0.1564
     24 C          58.5223   89.8867    6.5318 C.2     1  UNL1        0.2439
     25 O          57.0273   89.8690    6.6526 O.2     1  UNL1       -0.2731
     26 N          59.1800   90.7338    5.4831 N.am    1  UNL1       -0.2781
     27 C          60.6750   90.7515    5.3623 C.3     1  UNL1        0.0948
     28 C          61.3328   91.5987    4.3136 C.3     1  UNL1        0.0375
     29 C          60.4955   92.4281    3.3857 C.3     1  UNL1        0.0609
     30 C          59.0004   92.4104    3.5066 C.3     1  UNL1        0.0375
     31 C          58.3427   91.5633    4.5552 C.3     1  UNL1        0.0948
     32 N          61.1532   93.2752    2.3370 N.3     1  UNL1       -0.2738
     33 C          62.4669   92.8542    1.7482 C.3     1  UNL1        0.0720
     34 C          63.1247   93.7013    0.6994 C.3     1  UNL1        0.0174
     35 C          62.4686   94.9695    0.2396 C.3     1  UNL1        0.0029
     36 C          61.1548   95.3905    0.8285 C.3     1  UNL1        0.0174
     37 C          60.4971   94.5434    1.8772 C.3     1  UNL1        0.0720
     38 C          59.0599   87.5984    7.6384 C.3     1  UNL1        0.0552
     39 C          60.1754   86.6300    7.8989 C.2     1  UNL1       -0.0201
     40 C          60.7956   85.8762    6.7599 C.2     1  UNL1       -0.0143
     41 C          61.9111   84.9078    7.0205 C.3     1  UNL1        0.1151
     42 I          62.5313   84.1540    5.8816 I       1  UNL1       -0.0641
     43 C          62.4064   84.6932    8.4200 C.2     1  UNL1        0.1024
     44 N          63.4826   83.8107    8.9796 N.am    1  UNL1       -0.1423
     45 C          63.5275   84.0190   10.4644 C.2     1  UNL1        0.4298
     46 O          64.4575   83.3360   11.4228 O.2     1  UNL1       -0.2238
     47 O          62.4791   85.0303   10.8224 O.3     1  UNL1       -0.4078
     48 C          61.7863   85.4470    9.5590 C.2     1  UNL1        0.1621
     49 C          60.6708   86.4153    9.2984 C.2     1  UNL1        0.0342
@<TRIPOS>BOND
     1     2     3    2
     2     3     4   am
     3     4     1    1
     4     1    38    1
     5    38    39    1
     6    39    40    2
     7    40    41    1
     8    41    42    1
     9    41    43    1
    10    43    44    2
    11    44    45    1
    12    45    46    2
    13    45    47    1
    14    47    48    1
    15    48    49    2
    16     1    24    1
    17    24    25    2
    18    24    26   am
    19    26    27    1
    20    27    28    1
    21    28    29    1
    22    29    32    1
    23    32    33    1
    24    33    34    1
    25    34    35    1
    26    35    36    1
    27    36    37    1
    28    29    30    1
    29    30    31    1
    30     3     5   am
    31     5     6    1
    32     6     7    1
    33     7     8    1
    34     8    12    1
    35    12    13    1
    36    13    14    1
    37    14    15   ar
    38    15    16   ar
    39    16    17   ar
    40    17    18   ar
    41    18    19   ar
    42    19    20    1
    43    20    21   am
    44    21    22    2
    45     8     9    1
    46     9    10    1
    47    49    39    1
    48    31    26    1
    49    10     5    1
    50    48    43    1
    51    37    32    1
    52    21    12   am
    53    19    14   ar
    54     4    11    1
    55    20    23    1
@<TRIPOS>MOLECULE
*****
 49 55 0 0 0
SMALL
GASTEIGER

@<TRIPOS>ATOM
      1 C          60.7833   87.9771    8.9607 C.3     1  UNL1        0.1543
      2 O          58.2353   88.9046    7.6771 O.2     1  UNL1       -0.2526
      3 C          59.5573   89.3667    7.1398 C.2     1  UNL1        0.3043
      4 N          60.8313   88.9029    7.7816 N.am    1  UNL1       -0.2822
      5 N          59.6053   90.2925    5.9606 N.am    1  UNL1       -0.2641
      6 C          58.3313   90.7563    5.3188 C.3     1  UNL1        0.0966
      7 C          58.3794   91.6822    4.1396 C.3     1  UNL1        0.0415
      8 C          59.7014   92.1443    3.6023 C.3     1  UNL1        0.0806
      9 C          60.9753   91.6805    4.2440 C.3     1  UNL1        0.0415
     10 C          60.9273   90.7547    5.4232 C.3     1  UNL1        0.0966
     11 H          61.6990   89.2062    7.4289 H       1  UNL1        0.1514
     12 N          59.7494   93.0701    2.4231 N.am    1  UNL1       -0.2613
     13 C          59.7227   92.5131    1.0306 C.3     1  UNL1        0.1228
     14 C          59.7707   93.4391   -0.1486 C.ar    1  UNL1        0.0112
     15 C          59.7441   92.8821   -1.5411 C.ar    1  UNL1       -0.0014
     16 C          59.7921   93.8079   -2.7202 C.ar    1  UNL1       -0.0002
     17 C          59.8668   95.2909   -2.5069 C.ar    1  UNL1        0.0013
     18 C          59.8934   95.8479   -1.1144 C.ar    1  UNL1        0.0144
     19 C          59.8454   94.9219    0.0648 C.ar    1  UNL1        0.0492
     20 N          59.8720   95.4789    1.4573 N.am    1  UNL1       -0.2684
     21 C          59.8240   94.5531    2.6364 C.2     1  UNL1        0.3079
     22 O          59.8507   95.1101    4.0289 O.2     1  UNL1       -0.2522
     23 H          59.9210   96.4522    1.5973 H       1  UNL1        0.1564
     24 C          60.5279   88.5241   10.3339 C.2     1  UNL1        0.2439
     25 O          59.2250   88.2438   11.0225 O.2     1  UNL1       -0.2731
     26 N          61.5753   89.3512   11.0185 N.am    1  UNL1       -0.2781
     27 C          62.8781   89.6314   10.3299 C.3     1  UNL1        0.0948
     28 C          63.9256   90.4586   11.0144 C.3     1  UNL1        0.0375
     29 C          63.6702   91.0056   12.3876 C.3     1  UNL1        0.0609
     30 C          62.3673   90.7254   13.0762 C.3     1  UNL1        0.0375
     31 C          61.3199   89.8982   12.3916 C.3     1  UNL1        0.0948
     32 N          64.7176   91.8328   13.0722 N.3     1  UNL1       -0.2738
     33 C          65.4376   92.9084   12.3141 C.3     1  UNL1        0.0720
     34 C          66.4851   93.7356   12.9987 C.3     1  UNL1        0.0174
     35 C          66.8124   93.4872   14.4413 C.3     1  UNL1        0.0029
     36 C          66.0923   92.4116   15.1994 C.3     1  UNL1        0.0174
     37 C          65.0449   91.5844   14.5148 C.3     1  UNL1        0.0720
     38 C          60.9907   86.5041    8.7668 C.3     1  UNL1        0.0552
     39 C          61.7559   85.7138    9.7864 C.2     1  UNL1       -0.0201
     40 C          62.6806   84.6178    9.3463 C.2     1  UNL1       -0.0143
     41 C          63.4458   83.8275   10.3660 C.3     1  UNL1        0.1151
     42 I          64.3706   82.7315    9.9259 I       1  UNL1       -0.0641
     43 C          63.2863   84.1331   11.8259 C.2     1  UNL1        0.1024
     44 N          63.9046   83.5282   13.0514 N.am    1  UNL1       -0.1423
     45 C          63.3620   84.2504   14.2489 C.2     1  UNL1        0.4298
     46 O          63.7117   83.9705   15.6805 O.2     1  UNL1       -0.2238
     47 O          62.4083   85.3015   13.7635 O.3     1  UNL1       -0.4078
     48 C          62.3615   85.2290   12.2660 C.2     1  UNL1        0.1621
     49 C          61.5963   86.0194   11.2463 C.2     1  UNL1        0.0342
@<TRIPOS>BOND
     1     2     3    2
     2     3     4   am
     3     4     1    1
     4     1    38    1
     5    38    39    1
     6    39    40    2
     7    40    41    1
     8    41    42    1
     9    41    43    1
    10    43    44    2
    11    44    45    1
    12    45    46    2
    13    45    47    1
    14    47    48    1
    15    48    49    2
    16     1    24    1
    17    24    25    2
    18    24    26   am
    19    26    27    1
    20    27    28    1
    21    28    29    1
    22    29    32    1
    23    32    33    1
    24    33    34    1
    25    34    35    1
    26    35    36    1
    27    36    37    1
    28    29    30    1
    29    30    31    1
    30     3     5   am
    31     5     6    1
    32     6     7    1
    33     7     8    1
    34     8    12    1
    35    12    13    1
    36    13    14    1
    37    14    15   ar
    38    15    16   ar
    39    16    17   ar
    40    17    18   ar
    41    18    19   ar
    42    19    20    1
    43    20    21   am
    44    21    22    2
    45     8     9    1
    46     9    10    1
    47    49    39    1
    48    31    26    1
    49    10     5    1
    50    48    43    1
    51    37    32    1
    52    21    12   am
    53    19    14   ar
    54     4    11    1
    55    20    23    1
@<TRIPOS>MOLECULE
*****
 49 55 0 0 0
SMALL
GASTEIGER

@<TRIPOS>ATOM
      1 C          60.2318   89.2835    8.1270 C.3     1  UNL1        0.1543
      2 O          58.1218   90.4499    6.3418 O.2     1  UNL1       -0.2526
      3 C          59.5723   90.6253    6.0023 C.2     1  UNL1        0.3043
      4 N          60.6273   90.0420    6.8949 N.am    1  UNL1       -0.2822
      5 N          59.9677   91.3839    4.7702 N.am    1  UNL1       -0.2641
      6 C          58.9127   91.9671    3.8776 C.3     1  UNL1        0.0966
      7 C          59.3082   92.7257    2.6454 C.3     1  UNL1        0.0415
      8 C          60.7587   92.9011    2.3059 C.3     1  UNL1        0.0806
      9 C          61.8137   92.3178    3.1985 C.3     1  UNL1        0.0415
     10 C          61.4183   91.5592    4.4306 C.3     1  UNL1        0.0966
     11 H          61.5793   90.1571    6.6720 H       1  UNL1        0.1514
     12 N          61.1542   93.6596    1.0738 N.am    1  UNL1       -0.2613
     13 C          61.7347   92.9308   -0.1017 C.3     1  UNL1        0.1228
     14 C          62.1302   93.6895   -1.3338 C.ar    1  UNL1        0.0112
     15 C          62.7108   92.9606   -2.5093 C.ar    1  UNL1       -0.0014
     16 C          63.1062   93.7192   -3.7414 C.ar    1  UNL1       -0.0002
     17 C          62.9211   95.2067   -3.7981 C.ar    1  UNL1        0.0013
     18 C          62.3405   95.9356   -2.6226 C.ar    1  UNL1        0.0144
     19 C          61.9451   95.1769   -1.3904 C.ar    1  UNL1        0.0492
     20 N          61.3645   95.9057   -0.2150 N.am    1  UNL1       -0.2684
     21 C          60.9690   95.1471    1.0171 C.2     1  UNL1        0.3079
     22 O          60.3884   95.8760    2.1926 O.2     1  UNL1       -0.2522
     23 H          61.2430   96.8820   -0.2522 H       1  UNL1        0.1564
     24 C          60.1581   87.7856    8.0942 C.2     1  UNL1        0.2439
     25 O          59.3170   87.0986    7.0595 O.2     1  UNL1       -0.2731
     26 N          60.9255   86.9749    9.0961 N.am    1  UNL1       -0.2781
     27 C          61.7665   87.6619   10.1308 C.3     1  UNL1        0.0948
     28 C          62.5339   86.8512   11.1327 C.3     1  UNL1        0.0375
     29 C          62.4602   85.3533   11.1000 C.3     1  UNL1        0.0609
     30 C          61.6191   84.6663   10.0652 C.3     1  UNL1        0.0375
     31 C          60.8518   85.4770    9.0633 C.3     1  UNL1        0.0948
     32 N          63.2275   84.5426   12.1018 N.3     1  UNL1       -0.2738
     33 C          63.6605   85.1645   13.3963 C.3     1  UNL1        0.0720
     34 C          64.4279   84.3538   14.3982 C.3     1  UNL1        0.0174
     35 C          64.7622   82.9210   14.1057 C.3     1  UNL1        0.0029
     36 C          64.3291   82.2991   12.8112 C.3     1  UNL1        0.0174
     37 C          63.5618   83.1099   11.8093 C.3     1  UNL1        0.0720
     38 C          59.9101   90.0227    9.3919 C.3     1  UNL1        0.0552
     39 C          60.9929   90.3083   10.3899 C.2     1  UNL1       -0.0201
     40 C          62.2405   91.0211    9.9595 C.2     1  UNL1       -0.0143
     41 C          63.3234   91.3067   10.9575 C.3     1  UNL1        0.1151
     42 I          64.5710   92.0195   10.5271 I       1  UNL1       -0.0641
     43 C          63.1585   90.8794   12.3858 C.2     1  UNL1        0.1024
     44 N          64.0481   91.0219   13.5851 N.am    1  UNL1       -0.1423
     45 C          63.3503   90.3971   14.7568 C.2     1  UNL1        0.4298
     46 O          63.8803   90.3153   16.1576 O.2     1  UNL1       -0.2238
     47 O          62.0295   89.8685   14.2815 O.3     1  UNL1       -0.4078
     48 C          61.9109   90.1666   12.8162 C.2     1  UNL1        0.1621
     49 C          60.8281   89.8810   11.8183 C.2     1  UNL1        0.0342
@<TRIPOS>BOND
     1     2     3    2
     2     3     4   am
     3     4     1    1
     4     1    38    1
     5    38    39    1
     6    39    40    2
     7    40    41    1
     8    41    42    1
     9    41    43    1
    10    43    44    2
    11    44    45    1
    12    45    46    2
    13    45    47    1
    14    47    48    1
    15    48    49    2
    16     1    24    1
    17    24    25    2
    18    24    26   am
    19    26    27    1
    20    27    28    1
    21    28    29    1
    22    29    32    1
    23    32    33    1
    24    33    34    1
    25    34    35    1
    26    35    36    1
    27    36    37    1
    28    29    30    1
    29    30    31    1
    30     3     5   am
    31     5     6    1
    32     6     7    1
    33     7     8    1
    34     8    12    1
    35    12    13    1
    36    13    14    1
    37    14    15   ar
    38    15    16   ar
    39    16    17   ar
    40    17    18   ar
    41    18    19   ar
    42    19    20    1
    43    20    21   am
    44    21    22    2
    45     8     9    1
    46     9    10    1
    47    49    39    1
    48    31    26    1
    49    10     5    1
    50    48    43    1
    51    37    32    1
    52    21    12   am
    53    19    14   ar
    54     4    11    1
    55    20    23    1
@<TRIPOS>MOLECULE
*****
 49 55 0 0 0
SMALL
GASTEIGER

@<TRIPOS>ATOM
      1 C          60.5891   89.1915    8.5057 C.3     1  UNL1        0.1543
      2 O          58.2898   90.1273    6.8213 O.2     1  UNL1       -0.2526
      3 C          59.6981   90.4289    6.4022 C.2     1  UNL1        0.3043
      4 N          60.8478   89.9610    7.2444 N.am    1  UNL1       -0.2822
      5 N          59.9568   91.1984    5.1409 N.am    1  UNL1       -0.2641
      6 C          58.8071   91.6663    4.2987 C.3     1  UNL1        0.0966
      7 C          59.0658   92.4358    3.0373 C.3     1  UNL1        0.0415
      8 C          60.4741   92.7374    2.6182 C.3     1  UNL1        0.0806
      9 C          61.6238   92.2695    3.4605 C.3     1  UNL1        0.0415
     10 C          61.3651   91.5000    4.7218 C.3     1  UNL1        0.0966
     11 H          61.7721   90.1589    6.9694 H       1  UNL1        0.1514
     12 N          60.7328   93.5069    1.3569 N.am    1  UNL1       -0.2613
     13 C          61.2550   92.8004    0.1411 C.3     1  UNL1        0.1228
     14 C          61.5136   93.5700   -1.1203 C.ar    1  UNL1        0.0112
     15 C          62.0358   92.8636   -2.3361 C.ar    1  UNL1       -0.0014
     16 C          62.2945   93.6331   -3.5974 C.ar    1  UNL1       -0.0002
     17 C          62.0309   95.1091   -3.6429 C.ar    1  UNL1        0.0013
     18 C          61.5087   95.8155   -2.4271 C.ar    1  UNL1        0.0144
     19 C          61.2501   95.0459   -1.1657 C.ar    1  UNL1        0.0492
     20 N          60.7279   95.7524    0.0501 N.am    1  UNL1       -0.2684
     21 C          60.4693   94.9829    1.3114 C.2     1  UNL1        0.3079
     22 O          59.9471   95.6893    2.5272 O.2     1  UNL1       -0.2522
     23 H          60.5549   96.7211    0.0202 H       1  UNL1        0.1564
     24 C          60.4854   87.6956    8.4638 C.2     1  UNL1        0.2439
     25 O          59.7006   87.0285    7.3734 O.2     1  UNL1       -0.2731
     26 N          61.1665   86.8670    9.5123 N.am    1  UNL1       -0.2781
     27 C          61.9512   87.5341   10.6027 C.3     1  UNL1        0.0948
     28 C          62.6324   86.7054   11.6513 C.3     1  UNL1        0.0375
     29 C          62.5287   85.2096   11.6094 C.3     1  UNL1        0.0609
     30 C          61.7439   84.5425   10.5189 C.3     1  UNL1        0.0375
     31 C          61.0628   85.3711    9.4704 C.3     1  UNL1        0.0948
     32 N          63.2097   84.3809   12.6579 N.3     1  UNL1       -0.2738
     33 C          63.1623   82.8838   12.5784 C.3     1  UNL1        0.0720
     34 C          63.8434   82.0551   13.6269 C.3     1  UNL1        0.0174
     35 C          64.5719   82.7235   14.7549 C.3     1  UNL1        0.0029
     36 C          64.6193   84.2207   14.8344 C.3     1  UNL1        0.0174
     37 C          63.9383   85.0494   13.7859 C.3     1  UNL1        0.0720
     38 C          60.4341   89.9178    9.8090 C.3     1  UNL1        0.0552
     39 C          61.6478   90.3882   10.5544 C.2     1  UNL1       -0.0201
     40 C          61.8638   89.9673   11.9778 C.2     1  UNL1       -0.0143
     41 C          63.0775   90.4378   12.7232 C.3     1  UNL1        0.1151
     42 I          63.2935   90.0168   14.1466 I       1  UNL1       -0.0641
     43 C          64.0753   91.3292   12.0451 C.2     1  UNL1        0.1024
     44 N          65.3563   91.9470   12.5219 N.am    1  UNL1       -0.1423
     45 C          65.9321   92.7497   11.3932 C.2     1  UNL1        0.4298
     46 O          67.2089   93.5361   11.4320 O.2     1  UNL1       -0.2238
     47 O          65.0069   92.6281   10.2188 O.3     1  UNL1       -0.4078
     48 C          63.8593   91.7502   10.6217 C.2     1  UNL1        0.1621
     49 C          62.6456   91.2797    9.8763 C.2     1  UNL1        0.0342
@<TRIPOS>BOND
     1     2     3    2
     2     3     4   am
     3     4     1    1
     4     1    38    1
     5    38    39    1
     6    39    40    2
     7    40    41    1
     8    41    42    1
     9    41    43    1
    10    43    44    2
    11    44    45    1
    12    45    46    2
    13    45    47    1
    14    47    48    1
    15    48    49    2
    16     1    24    1
    17    24    25    2
    18    24    26   am
    19    26    27    1
    20    27    28    1
    21    28    29    1
    22    29    32    1
    23    32    33    1
    24    33    34    1
    25    34    35    1
    26    35    36    1
    27    36    37    1
    28    29    30    1
    29    30    31    1
    30     3     5   am
    31     5     6    1
    32     6     7    1
    33     7     8    1
    34     8    12    1
    35    12    13    1
    36    13    14    1
    37    14    15   ar
    38    15    16   ar
    39    16    17   ar
    40    17    18   ar
    41    18    19   ar
    42    19    20    1
    43    20    21   am
    44    21    22    2
    45     8     9    1
    46     9    10    1
    47    49    39    1
    48    31    26    1
    49    10     5    1
    50    48    43    1
    51    37    32    1
    52    21    12   am
    53    19    14   ar
    54     4    11    1
    55    20    23    1
