@<TRIPOS>MOLECULE
*****
 19 20 0 0 0
SMALL
GASTEIGER

@<TRIPOS>ATOM
      1 C          64.2433   91.4993   12.4623 C.2     1  UNL1        0.0033
      2 C          65.2203   92.3709   11.7304 C.2     1  UNL1        0.0435
      3 C          61.7380   88.5293   10.1924 C.ar    1  UNL1        0.0479
      4 C          61.9057   89.9247    9.6684 C.ar    1  UNL1        0.0145
      5 C          62.7408   90.9147   10.4250 C.ar    1  UNL1        0.0013
      6 C          63.4082   90.5093   11.7057 C.ar    1  UNL1        0.0002
      7 C          63.2406   89.1139   12.2297 C.ar    1  UNL1        0.0013
      8 C          62.4055   88.1239   11.4731 C.ar    1  UNL1        0.0145
      9 C          59.8598   88.0201    8.4711 C.3     1  UNL1        0.1122
     10 N          60.9029   87.5393    9.4358 N.pl3   1  UNL1       -0.3041
     11 C          61.1109   86.0685    9.6439 C.3     1  UNL1        0.1122
     12 C          66.0554   93.3609   12.4870 C.2     1  UNL1        0.2111
     13 O          66.2459   94.7480   11.9488 O.2     1  UNL1       -0.2850
     14 C          66.7001   92.9638   13.7820 C.ar    1  UNL1        0.0961
     15 C          67.7592   91.9156   13.9546 C.ar    1  UNL1        0.0218
     16 C          68.1125   91.8491   15.4109 C.ar    1  UNL1        0.0200
     17 C          67.2718   92.8562   16.1383 C.ar    1  UNL1        0.0725
     18 N          66.3989   93.5451   15.1315 N.ar    1  UNL1       -0.3495
     19 H          65.7434   94.2543   15.3230 H       1  UNL1        0.1661
@<TRIPOS>BOND
     1     9    10    1
     2    10    11    1
     3    10     3    1
     4     3     4   ar
     5     4     5   ar
     6     5     6   ar
     7     6     1    1
     8     1     2    2
     9     2    12    1
    10    12    13    2
    11    12    14    1
    12    14    15   ar
    13    15    16   ar
    14    16    17   ar
    15    17    18   ar
    16     6     7   ar
    17     7     8   ar
    18     8     3   ar
    19    18    14   ar
    20    18    19    1
@<TRIPOS>MOLECULE
*****
 19 20 0 0 0
SMALL
GASTEIGER

@<TRIPOS>ATOM
      1 C          62.3175   89.0519   11.4716 C.2     1  UNL1        0.0033
      2 C          62.0621   88.6699   10.0438 C.2     1  UNL1        0.0435
      3 C          65.1746   92.3937   12.4303 C.ar    1  UNL1        0.0479
      4 C          64.8234   91.3826   13.4811 C.ar    1  UNL1        0.0145
      5 C          63.8710   90.2687   13.1615 C.ar    1  UNL1        0.0013
      6 C          63.2699   90.1658   11.7912 C.ar    1  UNL1        0.0002
      7 C          63.6211   91.1769   10.7403 C.ar    1  UNL1        0.0013
      8 C          64.5735   92.2909   11.0599 C.ar    1  UNL1        0.0145
      9 C          66.8135   93.5483   14.0829 C.3     1  UNL1        0.1122
     10 N          66.1270   93.5076   12.7498 N.pl3   1  UNL1       -0.3041
     11 C          66.3929   94.5809   11.7363 C.3     1  UNL1        0.1122
     12 C          61.1097   87.5560    9.7242 C.2     1  UNL1        0.2111
     13 O          59.7757   87.4907   10.4070 O.2     1  UNL1       -0.2850
     14 C          61.4913   86.5073    8.7218 C.ar    1  UNL1        0.0961
     15 C          62.8105   85.7971    8.6477 C.ar    1  UNL1        0.0218
     16 C          62.7553   84.8356    7.4978 C.ar    1  UNL1        0.0200
     17 C          61.4020   84.9516    6.8611 C.ar    1  UNL1        0.0725
     18 N          60.6209   85.9847    7.6177 N.ar    1  UNL1       -0.3495
     19 H          59.6988   86.2698    7.4236 H       1  UNL1        0.1661
@<TRIPOS>BOND
     1     9    10    1
     2    10    11    1
     3    10     3    1
     4     3     4   ar
     5     4     5   ar
     6     5     6   ar
     7     6     1    1
     8     1     2    2
     9     2    12    1
    10    12    13    2
    11    12    14    1
    12    14    15   ar
    13    15    16   ar
    14    16    17   ar
    15    17    18   ar
    16     6     7   ar
    17     7     8   ar
    18     8     3   ar
    19    18    14   ar
    20    18    19    1
@<TRIPOS>MOLECULE
*****
 19 20 0 0 0
SMALL
GASTEIGER

@<TRIPOS>ATOM
      1 C          64.1876   89.7662   14.8944 C.2     1  UNL1        0.0033
      2 C          64.3179   88.2884   14.6728 C.2     1  UNL1        0.0435
      3 C          66.0015   92.6506   11.9550 C.ar    1  UNL1        0.0479
      4 C          66.7194   92.3311   13.2327 C.ar    1  UNL1        0.0145
      5 C          66.1147   91.3697   14.2125 C.ar    1  UNL1        0.0013
      6 C          64.7923   90.7276   13.9146 C.ar    1  UNL1        0.0002
      7 C          64.0744   91.0471   12.6369 C.ar    1  UNL1        0.0013
      8 C          64.6790   92.0086   11.6571 C.ar    1  UNL1        0.0145
      9 C          66.3782   95.0862   11.1329 C.3     1  UNL1        0.1122
     10 N          66.6061   93.6121   10.9752 N.pl3   1  UNL1       -0.3041
     11 C          67.4387   93.0994    9.8377 C.3     1  UNL1        0.1122
     12 C          63.7133   87.3269   15.6526 C.2     1  UNL1        0.2111
     13 O          63.1027   87.8367   16.9243 O.2     1  UNL1       -0.2850
     14 C          63.7193   85.8555   15.3606 C.ar    1  UNL1        0.0961
     15 C          64.8129   85.0988   14.6668 C.ar    1  UNL1        0.0218
     16 C          64.4023   83.6582   14.5886 C.ar    1  UNL1        0.0200
     17 C          63.0548   83.5247   15.2341 C.ar    1  UNL1        0.0725
     18 N          62.6327   84.8827   15.7112 N.ar    1  UNL1       -0.3495
     19 H          61.7905   85.0977   16.1733 H       1  UNL1        0.1661
@<TRIPOS>BOND
     1     9    10    1
     2    10    11    1
     3    10     3    1
     4     3     4   ar
     5     4     5   ar
     6     5     6   ar
     7     6     1    1
     8     1     2    2
     9     2    12    1
    10    12    13    2
    11    12    14    1
    12    14    15   ar
    13    15    16   ar
    14    16    17   ar
    15    17    18   ar
    16     6     7   ar
    17     7     8   ar
    18     8     3   ar
    19    18    14   ar
    20    18    19    1
@<TRIPOS>MOLECULE
*****
 19 20 0 0 0
SMALL
GASTEIGER

@<TRIPOS>ATOM
      1 C          64.2697   88.5633   14.0233 C.2     1  UNL1        0.0033
      2 C          63.8747   89.3140   15.2603 C.2     1  UNL1        0.0435
      3 C          63.3891   84.1633   13.6840 C.ar    1  UNL1        0.0479
      4 C          62.9695   85.0988   12.5891 C.ar    1  UNL1        0.0145
      5 C          63.2630   86.5655   12.7022 C.ar    1  UNL1        0.0013
      6 C          63.9762   87.0966   13.9102 C.ar    1  UNL1        0.0002
      7 C          64.3958   86.1611   15.0050 C.ar    1  UNL1        0.0013
      8 C          64.1023   84.6945   14.8919 C.ar    1  UNL1        0.0145
      9 C          63.8669   81.8500   12.6023 C.3     1  UNL1        0.1122
     10 N          63.0956   82.6967   13.5709 N.pl3   1  UNL1       -0.3041
     11 C          62.0308   82.0768   14.4263 C.3     1  UNL1        0.1122
     12 C          64.1683   90.7806   15.3734 C.2     1  UNL1        0.2111
     13 O          63.4181   91.6215   16.3634 O.2     1  UNL1       -0.2850
     14 C          65.2120   91.4064   14.4964 C.ar    1  UNL1        0.0961
     15 C          66.6724   91.5313   14.8156 C.ar    1  UNL1        0.0218
     16 C          67.3416   92.2192   13.6628 C.ar    1  UNL1        0.0200
     17 C          66.2948   92.5195   12.6312 C.ar    1  UNL1        0.0725
     18 N          64.9787   92.0172   13.1464 N.ar    1  UNL1       -0.3495
     19 H          64.1136   92.0777   12.6804 H       1  UNL1        0.1661
@<TRIPOS>BOND
     1     9    10    1
     2    10    11    1
     3    10     3    1
     4     3     4   ar
     5     4     5   ar
     6     5     6   ar
     7     6     1    1
     8     1     2    2
     9     2    12    1
    10    12    13    2
    11    12    14    1
    12    14    15   ar
    13    15    16   ar
    14    16    17   ar
    15    17    18   ar
    16     6     7   ar
    17     7     8   ar
    18     8     3   ar
    19    18    14   ar
    20    18    19    1
@<TRIPOS>MOLECULE
*****
 19 20 0 0 0
SMALL
GASTEIGER

@<TRIPOS>ATOM
      1 C          64.3779   87.6390   14.7250 C.2     1  UNL1        0.0033
      2 C          64.0500   88.8946   13.9729 C.2     1  UNL1        0.0435
      3 C          63.7140   83.6254   12.8015 C.ar    1  UNL1        0.0479
      4 C          64.6305   83.7486   13.9825 C.ar    1  UNL1        0.0145
      5 C          64.8518   85.0865   14.6237 C.ar    1  UNL1        0.0013
      6 C          64.1566   86.3011   14.0839 C.ar    1  UNL1        0.0002
      7 C          63.2401   86.1778   12.9029 C.ar    1  UNL1        0.0013
      8 C          63.0188   84.8399   12.2617 C.ar    1  UNL1        0.0145
      9 C          63.0159   81.1297   12.9862 C.3     1  UNL1        0.1122
     10 N          63.4927   82.2875   12.1604 N.pl3   1  UNL1       -0.3041
     11 C          63.7482   82.1074   10.6933 C.3     1  UNL1        0.1122
     12 C          64.2713   90.2325   14.6140 C.2     1  UNL1        0.2111
     13 O          63.4197   90.6589   15.7728 O.2     1  UNL1       -0.2850
     14 C          65.3443   91.1440   14.0963 C.ar    1  UNL1        0.0961
     15 C          65.2458   92.0227   12.8847 C.ar    1  UNL1        0.0218
     16 C          66.5447   92.7586   12.7389 C.ar    1  UNL1        0.0200
     17 C          67.4460   92.3346   13.8604 C.ar    1  UNL1        0.0725
     18 N          66.7041   91.3367   14.6994 N.ar    1  UNL1       -0.3495
     19 H          67.0491   90.8872   15.5044 H       1  UNL1        0.1661
@<TRIPOS>BOND
     1     9    10    1
     2    10    11    1
     3    10     3    1
     4     3     4   ar
     5     4     5   ar
     6     5     6   ar
     7     6     1    1
     8     1     2    2
     9     2    12    1
    10    12    13    2
    11    12    14    1
    12    14    15   ar
    13    15    16   ar
    14    16    17   ar
    15    17    18   ar
    16     6     7   ar
    17     7     8   ar
    18     8     3   ar
    19    18    14   ar
    20    18    19    1
@<TRIPOS>MOLECULE
*****
 19 20 0 0 0
SMALL
GASTEIGER

@<TRIPOS>ATOM
      1 C          64.2375   91.8326   12.3809 C.2     1  UNL1        0.0033
      2 C          65.3726   92.4148   11.5918 C.2     1  UNL1        0.0435
      3 C          62.0677   88.1976   10.8550 C.ar    1  UNL1        0.0479
      4 C          62.0514   89.4695   10.0600 C.ar    1  UNL1        0.0145
      5 C          62.7747   90.6812   10.5687 C.ar    1  UNL1        0.0013
      6 C          63.5142   90.6209   11.8722 C.ar    1  UNL1        0.0002
      7 C          63.5306   89.3491   12.6672 C.ar    1  UNL1        0.0013
      8 C          62.8073   88.1374   12.1585 C.ar    1  UNL1        0.0145
      9 C          61.7135   85.6238   10.8547 C.3     1  UNL1        0.1122
     10 N          61.3445   86.9859   10.3463 N.pl3   1  UNL1       -0.3041
     11 C          60.2522   87.1363    9.3294 C.3     1  UNL1        0.1122
     12 C          66.0959   93.6264   12.1005 C.2     1  UNL1        0.2111
     13 O          66.3947   93.7621   13.5641 O.2     1  UNL1       -0.2850
     14 C          66.5203   94.7025   11.1454 C.ar    1  UNL1        0.0961
     15 C          66.0948   96.1401   11.1912 C.ar    1  UNL1        0.0218
     16 C          66.7562   96.8559   10.0510 C.ar    1  UNL1        0.0200
     17 C          67.5906   95.8606    9.3005 C.ar    1  UNL1        0.0725
     18 N          67.4448   94.5297    9.9769 N.ar    1  UNL1       -0.3495
     19 H          67.8796   93.6902    9.7021 H       1  UNL1        0.1661
@<TRIPOS>BOND
     1     9    10    1
     2    10    11    1
     3    10     3    1
     4     3     4   ar
     5     4     5   ar
     6     5     6   ar
     7     6     1    1
     8     1     2    2
     9     2    12    1
    10    12    13    2
    11    12    14    1
    12    14    15   ar
    13    15    16   ar
    14    16    17   ar
    15    17    18   ar
    16     6     7   ar
    17     7     8   ar
    18     8     3   ar
    19    18    14   ar
    20    18    19    1
@<TRIPOS>MOLECULE
*****
 19 20 0 0 0
SMALL
GASTEIGER

@<TRIPOS>ATOM
      1 C          63.9477   89.2768   13.7545 C.2     1  UNL1        0.0033
      2 C          63.7026   90.7256   14.0561 C.2     1  UNL1        0.0435
      3 C          62.0080   87.3646   10.1725 C.ar    1  UNL1        0.0479
      4 C          62.4563   86.5158   11.3250 C.ar    1  UNL1        0.0145
      5 C          63.1029   87.1532   12.5190 C.ar    1  UNL1        0.0013
      6 C          63.3011   88.6394   12.5605 C.ar    1  UNL1        0.0002
      7 C          62.8527   89.4883   11.4080 C.ar    1  UNL1        0.0013
      8 C          62.2062   88.8509   10.2140 C.ar    1  UNL1        0.0145
      9 C          59.9860   87.1504    8.5552 C.3     1  UNL1        0.1122
     10 N          61.3614   86.7273    8.9785 N.pl3   1  UNL1       -0.3041
     11 C          62.0902   85.6667    8.2078 C.3     1  UNL1        0.1122
     12 C          64.3491   91.3630   15.2501 C.2     1  UNL1        0.2111
     13 O          63.5688   91.5440   16.5183 O.2     1  UNL1       -0.2850
     14 C          65.7762   91.8193   15.1760 C.ar    1  UNL1        0.0961
     15 C          66.4993   92.6248   16.2144 C.ar    1  UNL1        0.0218
     16 C          67.9006   92.8536   15.7306 C.ar    1  UNL1        0.0200
     17 C          68.0435   92.1895   14.3932 C.ar    1  UNL1        0.0725
     18 N          66.7305   91.5503   14.0504 N.ar    1  UNL1       -0.3495
     19 H          66.5303   91.0432   13.2307 H       1  UNL1        0.1661
@<TRIPOS>BOND
     1     9    10    1
     2    10    11    1
     3    10     3    1
     4     3     4   ar
     5     4     5   ar
     6     5     6   ar
     7     6     1    1
     8     1     2    2
     9     2    12    1
    10    12    13    2
    11    12    14    1
    12    14    15   ar
    13    15    16   ar
    14    16    17   ar
    15    17    18   ar
    16     6     7   ar
    17     7     8   ar
    18     8     3   ar
    19    18    14   ar
    20    18    19    1
@<TRIPOS>MOLECULE
*****
 19 20 0 0 0
SMALL
GASTEIGER

@<TRIPOS>ATOM
      1 C          63.1229   89.4360   12.4848 C.2     1  UNL1        0.0033
      2 C          63.2390   90.8540   12.9598 C.2     1  UNL1        0.0435
      3 C          60.4692   88.4445    8.9883 C.ar    1  UNL1        0.0479
      4 C          60.3448   89.7744    9.6709 C.ar    1  UNL1        0.0145
      5 C          61.2294   90.1049   10.8364 C.ar    1  UNL1        0.0013
      6 C          62.2383   89.1055   11.3193 C.ar    1  UNL1        0.0002
      7 C          62.3627   87.7756   10.6367 C.ar    1  UNL1        0.0013
      8 C          61.4781   87.4452    9.4712 C.ar    1  UNL1        0.0145
      9 C          59.2628   89.1663    6.8035 C.3     1  UNL1        0.1122
     10 N          59.5846   88.1141    7.8229 N.pl3   1  UNL1       -0.3041
     11 C          59.0219   86.7313    7.6767 C.3     1  UNL1        0.1122
     12 C          64.1236   91.1844   14.1253 C.2     1  UNL1        0.2111
     13 O          63.5728   91.1445   15.5199 O.2     1  UNL1       -0.2850
     14 C          65.5590   91.5548   13.8961 C.ar    1  UNL1        0.0961
     15 C          66.1300   92.1322   12.6349 C.ar    1  UNL1        0.0218
     16 C          67.5993   92.3471   12.8471 C.ar    1  UNL1        0.0200
     17 C          67.9363   91.9026   14.2396 C.ar    1  UNL1        0.0725
     18 N          66.6754   91.4130   14.8878 N.ar    1  UNL1       -0.3495
     19 H          66.5946   91.0604   15.8035 H       1  UNL1        0.1661
@<TRIPOS>BOND
     1     9    10    1
     2    10    11    1
     3    10     3    1
     4     3     4   ar
     5     4     5   ar
     6     5     6   ar
     7     6     1    1
     8     1     2    2
     9     2    12    1
    10    12    13    2
    11    12    14    1
    12    14    15   ar
    13    15    16   ar
    14    16    17   ar
    15    17    18   ar
    16     6     7   ar
    17     7     8   ar
    18     8     3   ar
    19    18    14   ar
    20    18    19    1
@<TRIPOS>MOLECULE
*****
 19 20 0 0 0
SMALL
GASTEIGER

@<TRIPOS>ATOM
      1 C          62.3398   88.5645   11.9907 C.2     1  UNL1        0.0033
      2 C          62.6174   87.8996   10.6751 C.2     1  UNL1        0.0435
      3 C          65.2427   91.5787   13.6454 C.ar    1  UNL1        0.0479
      4 C          64.9810   90.3026   14.3891 C.ar    1  UNL1        0.0145
      5 C          64.0134   89.2979   13.8376 C.ar    1  UNL1        0.0013
      6 C          63.3074   89.5692   12.5423 C.ar    1  UNL1        0.0002
      7 C          63.5691   90.8453   11.7985 C.ar    1  UNL1        0.0013
      8 C          64.5367   91.8500   12.3500 C.ar    1  UNL1        0.0145
      9 C          66.5126   93.8347   13.4270 C.3     1  UNL1        0.1122
     10 N          66.2103   92.5834   14.1969 N.pl3   1  UNL1       -0.3041
     11 C          66.8757   92.3368   15.5184 C.3     1  UNL1        0.1122
     12 C          61.6497   86.8949   10.1236 C.2     1  UNL1        0.2111
     13 O          61.6599   85.4848   10.6348 O.2     1  UNL1       -0.2850
     14 C          60.6719   87.3004    9.0608 C.ar    1  UNL1        0.0961
     15 C          59.8069   86.3738    8.2587 C.ar    1  UNL1        0.0218
     16 C          58.9878   87.2043    7.3157 C.ar    1  UNL1        0.0200
     17 C          59.3466   88.6443    7.5349 C.ar    1  UNL1        0.0725
     18 N          60.3874   88.7036    8.6134 N.ar    1  UNL1       -0.3495
     19 H          60.8096   89.5201    8.9658 H       1  UNL1        0.1661
@<TRIPOS>BOND
     1     9    10    1
     2    10    11    1
     3    10     3    1
     4     3     4   ar
     5     4     5   ar
     6     5     6   ar
     7     6     1    1
     8     1     2    2
     9     2    12    1
    10    12    13    2
    11    12    14    1
    12    14    15   ar
    13    15    16   ar
    14    16    17   ar
    15    17    18   ar
    16     6     7   ar
    17     7     8   ar
    18     8     3   ar
    19    18    14   ar
    20    18    19    1
