@<TRIPOS>MOLECULE
*****
 34 37 0 0 0
SMALL
GASTEIGER

@<TRIPOS>ATOM
      1 C          65.3134   92.0986   12.3954 C.ar    1  UNL1       -0.0004
      2 C          64.9376   91.1816   13.5214 C.ar    1  UNL1       -0.0024
      3 C          63.8070   90.2105   13.3523 C.ar    1  UNL1       -0.0002
      4 C          63.0521   90.1564   12.0572 C.ar    1  UNL1        0.0030
      5 C          61.9214   89.1853   11.8882 C.ar    1  UNL1        0.0369
      6 C          61.1665   89.1312   10.5931 C.ar    1  UNL1        0.1391
      7 C          61.5424   90.0482    9.4670 C.ar    1  UNL1        0.0369
      8 C          62.6730   91.0193    9.6361 C.ar    1  UNL1        0.0031
      9 C          63.4279   91.0734   10.9312 C.ar    1  UNL1       -0.0001
     10 C          64.5585   92.0445   11.1003 C.ar    1  UNL1       -0.0024
     11 C          66.4441   93.0697   12.5645 C.3     1  UNL1        0.1240
     12 N          67.2842   93.0337   13.8066 N.ar    1  UNL1       -0.3045
     13 C          67.1141   93.9102   15.0118 C.ar    1  UNL1        0.0983
     14 C          68.1668   93.5331   16.0117 C.ar    1  UNL1        0.1193
     15 N          68.9876   92.4235   15.4243 N.ar    1  UNL1       -0.2223
     16 C          68.4421   92.1148   14.0615 C.ar    1  UNL1        0.1788
     17 C          66.1979   95.4727   11.6079 C.3     1  UNL1        0.0197
     18 C          66.7345   94.0768   11.4915 C.3     1  UNL1        0.0827
     19 N          67.5616   93.6880   10.3020 N.3     1  UNL1       -0.2696
     20 C          68.1552   92.3130   10.2184 C.3     1  UNL1        0.0897
     21 C          67.7949   94.6742    9.1961 C.3     1  UNL1        0.0897
     22 O          60.0359   88.1601   10.4240 O.3     1  UNL1       -0.4706
     23 C          60.2281   86.9211    9.6005 C.3     1  UNL1        0.2320
     24 C          61.3315   85.9618    9.9353 C.ar    1  UNL1        0.0214
     25 C          62.1733   85.3754    8.8410 C.ar    1  UNL1        0.0024
     26 C          63.2767   84.4160    9.1757 C.ar    1  UNL1        0.0367
     27 C          63.5383   84.0430   10.6048 C.ar    1  UNL1        0.1391
     28 C          62.6964   84.6293   11.6992 C.ar    1  UNL1        0.0367
     29 C          61.5931   85.5887   11.3644 C.ar    1  UNL1        0.0024
     30 O          64.6416   83.0836   10.9396 O.3     1  UNL1       -0.4694
     31 C          64.7185   82.4775   12.3096 C.3     1  UNL1        0.2469
     32 C          63.7492   81.4053   12.7108 C.2     1  UNL1        0.0940
     33 O          63.7329   80.8992   14.1228 O.co2   1  UNL1       -0.5454
     34 O          62.7962   80.8394   11.7002 O.co2   1  UNL1       -0.5454
@<TRIPOS>UNITY_ATOM_ATTR
33 1
charge -1
@<TRIPOS>BOND
     1    17    18    1
     2    18    11    1
     3    11     1    1
     4     1     2   ar
     5     2     3   ar
     6     3     4   ar
     7     4     5   ar
     8     5     6   ar
     9     6    22    1
    10    22    23    1
    11    23    24    1
    12    24    25   ar
    13    25    26   ar
    14    26    27   ar
    15    27    30    1
    16    30    31    1
    17    31    32    1
    18    32    33   ar
    19    32    34   ar
    20    27    28   ar
    21    28    29   ar
    22     6     7   ar
    23     7     8   ar
    24     8     9   ar
    25     9    10   ar
    26    11    12    1
    27    12    13   ar
    28    13    14   ar
    29    14    15   ar
    30    15    16   ar
    31    18    19    1
    32    19    20    1
    33    19    21    1
    34    10     1   ar
    35    16    12   ar
    36     9     4   ar
    37    29    24   ar
@<TRIPOS>MOLECULE
*****
 34 37 0 0 0
SMALL
GASTEIGER

@<TRIPOS>ATOM
      1 C          65.1868   91.8940   12.5380 C.ar    1  UNL1       -0.0004
      2 C          64.8899   90.8170   13.5390 C.ar    1  UNL1       -0.0024
      3 C          63.8208   89.8038   13.2556 C.ar    1  UNL1       -0.0002
      4 C          63.0486   89.8676   11.9712 C.ar    1  UNL1        0.0030
      5 C          61.9794   88.8543   11.6879 C.ar    1  UNL1        0.0369
      6 C          61.2071   88.9181   10.4035 C.ar    1  UNL1        0.1391
      7 C          61.5041   89.9951    9.4025 C.ar    1  UNL1        0.0369
      8 C          62.5732   91.0083    9.6859 C.ar    1  UNL1        0.0031
      9 C          63.3455   90.9445   10.9703 C.ar    1  UNL1       -0.0001
     10 C          64.4146   91.9577   11.2537 C.ar    1  UNL1       -0.0024
     11 C          66.2560   92.9072   12.8214 C.3     1  UNL1        0.1240
     12 N          66.5727   93.9667   11.8079 N.ar    1  UNL1       -0.3045
     13 C          66.2037   95.4174   11.9042 C.ar    1  UNL1        0.0983
     14 C          66.7169   96.1089   10.6760 C.ar    1  UNL1        0.1193
     15 N          67.4032   95.0855    9.8206 N.ar    1  UNL1       -0.2223
     16 C          67.3140   93.7616   10.5202 C.ar    1  UNL1        0.1788
     17 C          66.3138   93.2092   15.4012 C.3     1  UNL1        0.0197
     18 C          67.0084   92.8609   14.1182 C.3     1  UNL1        0.0827
     19 N          68.4556   92.4664   14.1319 N.3     1  UNL1       -0.2696
     20 C          69.3275   92.8534   15.2896 C.3     1  UNL1        0.0897
     21 C          69.0308   91.6849   12.9882 C.3     1  UNL1        0.0897
     22 O          60.1380   87.9049   10.1201 O.3     1  UNL1       -0.4706
     23 C          60.4581   86.6831    9.3108 C.3     1  UNL1        0.2320
     24 C          61.5248   85.7355    9.7732 C.ar    1  UNL1        0.0214
     25 C          62.4648   85.1212    8.7786 C.ar    1  UNL1        0.0024
     26 C          63.5316   84.1735    9.2409 C.ar    1  UNL1        0.0367
     27 C          63.6584   83.8400   10.6979 C.ar    1  UNL1        0.1391
     28 C          62.7184   84.4543   11.6925 C.ar    1  UNL1        0.0367
     29 C          61.6517   85.4020   11.2301 C.ar    1  UNL1        0.0024
     30 O          64.7252   82.8923   11.1603 O.3     1  UNL1       -0.4694
     31 C          64.6549   82.2971   12.5353 C.3     1  UNL1        0.2469
     32 C          63.6031   81.2776   12.8584 C.2     1  UNL1        0.0940
     33 O          63.3665   80.8694   14.2823 O.co2   1  UNL1       -0.5454
     34 O          62.7878   80.6664   11.7576 O.co2   1  UNL1       -0.5454
@<TRIPOS>UNITY_ATOM_ATTR
33 1
charge -1
@<TRIPOS>BOND
     1    17    18    1
     2    18    11    1
     3    11     1    1
     4     1     2   ar
     5     2     3   ar
     6     3     4   ar
     7     4     5   ar
     8     5     6   ar
     9     6    22    1
    10    22    23    1
    11    23    24    1
    12    24    25   ar
    13    25    26   ar
    14    26    27   ar
    15    27    30    1
    16    30    31    1
    17    31    32    1
    18    32    33   ar
    19    32    34   ar
    20    27    28   ar
    21    28    29   ar
    22     6     7   ar
    23     7     8   ar
    24     8     9   ar
    25     9    10   ar
    26    11    12    1
    27    12    13   ar
    28    13    14   ar
    29    14    15   ar
    30    15    16   ar
    31    18    19    1
    32    19    20    1
    33    19    21    1
    34    10     1   ar
    35    16    12   ar
    36     9     4   ar
    37    29    24   ar
@<TRIPOS>MOLECULE
*****
 34 37 0 0 0
SMALL
GASTEIGER

@<TRIPOS>ATOM
      1 C          63.5656   85.2537   12.8981 C.ar    1  UNL1       -0.0004
      2 C          64.3207   85.1567   14.1906 C.ar    1  UNL1       -0.0024
      3 C          64.6592   86.4011   14.9566 C.ar    1  UNL1       -0.0002
      4 C          64.2427   87.7425   14.4302 C.ar    1  UNL1        0.0030
      5 C          64.5813   88.9870   15.1963 C.ar    1  UNL1        0.0369
      6 C          64.1648   90.3284   14.6698 C.ar    1  UNL1        0.1391
      7 C          63.4097   90.4254   13.3773 C.ar    1  UNL1        0.0369
      8 C          63.0711   89.1810   12.6113 C.ar    1  UNL1        0.0031
      9 C          63.4876   87.8396   13.1377 C.ar    1  UNL1       -0.0001
     10 C          63.1491   86.5952   12.3717 C.ar    1  UNL1       -0.0024
     11 C          63.2270   84.0093   12.1321 C.3     1  UNL1        0.1240
     12 N          62.7279   82.7947   12.8571 N.ar    1  UNL1       -0.3045
     13 C          62.7394   81.3889   12.3341 C.ar    1  UNL1        0.0983
     14 C          62.1483   80.4980   13.3862 C.ar    1  UNL1        0.1193
     15 N          61.7714   81.3533   14.5595 N.ar    1  UNL1       -0.2223
     16 C          62.1296   82.7727   14.2325 C.ar    1  UNL1        0.1788
     17 C          64.3251   82.9950   10.0071 C.3     1  UNL1        0.0197
     18 C          63.3875   83.9795   10.6410 C.3     1  UNL1        0.0827
     19 N          62.6105   84.9342    9.7838 N.3     1  UNL1       -0.2696
     20 C          63.1000   85.2752    8.4075 C.3     1  UNL1        0.0897
     21 C          61.3440   85.5479   10.3028 C.3     1  UNL1        0.0897
     22 O          64.5033   91.5728   15.4359 O.3     1  UNL1       -0.4706
     23 C          65.7663   92.3218   15.1295 C.3     1  UNL1        0.2320
     24 C          66.3212   92.3183   13.7359 C.ar    1  UNL1        0.0214
     25 C          65.4803   92.8040   12.5927 C.ar    1  UNL1        0.0024
     26 C          66.0352   92.8005   11.1991 C.ar    1  UNL1        0.0367
     27 C          67.4308   92.3112   10.9487 C.ar    1  UNL1        0.1391
     28 C          68.2717   91.8254   12.0920 C.ar    1  UNL1        0.0367
     29 C          67.7168   91.8289   13.4856 C.ar    1  UNL1        0.0024
     30 O          67.9856   92.3076    9.5551 O.3     1  UNL1       -0.4694
     31 C          68.4908   93.5818    8.9458 C.3     1  UNL1        0.2469
     32 C          67.6294   94.8098    8.9531 C.2     1  UNL1        0.0940
     33 O          67.5819   95.6854   10.1701 O.co2   1  UNL1       -0.5454
     34 O          66.8155   95.1621    7.7434 O.co2   1  UNL1       -0.5454
@<TRIPOS>UNITY_ATOM_ATTR
33 1
charge -1
@<TRIPOS>BOND
     1    17    18    1
     2    18    11    1
     3    11     1    1
     4     1     2   ar
     5     2     3   ar
     6     3     4   ar
     7     4     5   ar
     8     5     6   ar
     9     6    22    1
    10    22    23    1
    11    23    24    1
    12    24    25   ar
    13    25    26   ar
    14    26    27   ar
    15    27    30    1
    16    30    31    1
    17    31    32    1
    18    32    33   ar
    19    32    34   ar
    20    27    28   ar
    21    28    29   ar
    22     6     7   ar
    23     7     8   ar
    24     8     9   ar
    25     9    10   ar
    26    11    12    1
    27    12    13   ar
    28    13    14   ar
    29    14    15   ar
    30    15    16   ar
    31    18    19    1
    32    19    20    1
    33    19    21    1
    34    10     1   ar
    35    16    12   ar
    36     9     4   ar
    37    29    24   ar
@<TRIPOS>MOLECULE
*****
 34 37 0 0 0
SMALL
GASTEIGER

@<TRIPOS>ATOM
      1 C          62.9698   84.4508   12.0486 C.ar    1  UNL1       -0.0004
      2 C          63.4540   83.9225   10.7309 C.ar    1  UNL1       -0.0024
      3 C          62.9472   84.5197    9.4516 C.ar    1  UNL1       -0.0002
      4 C          61.9562   85.6451    9.4901 C.ar    1  UNL1        0.0030
      5 C          61.4495   86.2422    8.2108 C.ar    1  UNL1        0.0369
      6 C          60.4585   87.3676    8.2492 C.ar    1  UNL1        0.1391
      7 C          59.9742   87.8958    9.5671 C.ar    1  UNL1        0.0369
      8 C          60.4810   87.2987   10.8463 C.ar    1  UNL1        0.0031
      9 C          61.4720   86.1733   10.8078 C.ar    1  UNL1       -0.0001
     10 C          61.9788   85.5761   12.0871 C.ar    1  UNL1       -0.0024
     11 C          63.4766   83.8536   13.3280 C.3     1  UNL1        0.1240
     12 N          63.2124   82.4100   13.6381 N.ar    1  UNL1       -0.3045
     13 C          61.8630   81.7774   13.8082 C.ar    1  UNL1        0.0983
     14 C          62.0678   80.3219   14.1079 C.ar    1  UNL1        0.1193
     15 N          63.5438   80.0550   14.1230 N.ar    1  UNL1       -0.2223
     16 C          64.2511   81.3455   13.8327 C.ar    1  UNL1        0.1788
     17 C          65.7438   84.7641   14.2116 C.3     1  UNL1        0.0197
     18 C          64.2475   84.7000   14.2970 C.3     1  UNL1        0.0827
     19 N          63.5223   85.4824   15.3515 N.3     1  UNL1       -0.2696
     20 C          63.9490   86.8844   15.6717 C.3     1  UNL1        0.0897
     21 C          62.3704   84.8628   16.0859 C.3     1  UNL1        0.0897
     22 O          59.9517   87.9648    6.9700 O.3     1  UNL1       -0.4706
     23 C          59.0585   89.1693    7.0067 C.3     1  UNL1        0.2320
     24 C          59.2078   90.2456    5.9726 C.ar    1  UNL1        0.0214
     25 C          58.0033   91.0051    5.5013 C.ar    1  UNL1        0.0024
     26 C          58.1526   92.0814    4.4672 C.ar    1  UNL1        0.0367
     27 C          59.5065   92.3981    3.9045 C.ar    1  UNL1        0.1391
     28 C          60.7111   91.6385    4.3758 C.ar    1  UNL1        0.0367
     29 C          60.5617   90.5623    5.4099 C.ar    1  UNL1        0.0024
     30 O          59.6559   93.4744    2.8704 O.3     1  UNL1       -0.4694
     31 C          59.6581   93.1191    1.4131 C.3     1  UNL1        0.2469
     32 C          60.9583   92.9480    0.6848 C.2     1  UNL1        0.0940
     33 O          62.2426   92.8565    1.4544 O.co2   1  UNL1       -0.5454
     34 O          60.9741   92.8683   -0.8129 O.co2   1  UNL1       -0.5454
@<TRIPOS>UNITY_ATOM_ATTR
33 1
charge -1
@<TRIPOS>BOND
     1    17    18    1
     2    18    11    1
     3    11     1    1
     4     1     2   ar
     5     2     3   ar
     6     3     4   ar
     7     4     5   ar
     8     5     6   ar
     9     6    22    1
    10    22    23    1
    11    23    24    1
    12    24    25   ar
    13    25    26   ar
    14    26    27   ar
    15    27    30    1
    16    30    31    1
    17    31    32    1
    18    32    33   ar
    19    32    34   ar
    20    27    28   ar
    21    28    29   ar
    22     6     7   ar
    23     7     8   ar
    24     8     9   ar
    25     9    10   ar
    26    11    12    1
    27    12    13   ar
    28    13    14   ar
    29    14    15   ar
    30    15    16   ar
    31    18    19    1
    32    19    20    1
    33    19    21    1
    34    10     1   ar
    35    16    12   ar
    36     9     4   ar
    37    29    24   ar
@<TRIPOS>MOLECULE
*****
 34 37 0 0 0
SMALL
GASTEIGER

@<TRIPOS>ATOM
      1 C          62.7622   85.7636   11.9575 C.ar    1  UNL1       -0.0004
      2 C          63.1172   87.1767   12.3139 C.ar    1  UNL1       -0.0024
      3 C          62.5479   88.3157   11.5212 C.ar    1  UNL1       -0.0002
      4 C          61.6234   88.0417   10.3722 C.ar    1  UNL1        0.0030
      5 C          61.0540   89.1808    9.5795 C.ar    1  UNL1        0.0369
      6 C          60.1295   88.9068    8.4305 C.ar    1  UNL1        0.1391
      7 C          59.7745   87.4936    8.0741 C.ar    1  UNL1        0.0369
      8 C          60.3439   86.3546    8.8668 C.ar    1  UNL1        0.0031
      9 C          61.2683   86.6286   10.0158 C.ar    1  UNL1       -0.0001
     10 C          61.8377   85.4895   10.8084 C.ar    1  UNL1       -0.0024
     11 C          63.3316   84.6244   12.7501 C.3     1  UNL1        0.1240
     12 N          63.2576   83.2259   12.2128 N.ar    1  UNL1       -0.3045
     13 C          62.5734   82.0640   12.8698 C.ar    1  UNL1        0.0983
     14 C          62.7478   80.8638   11.9871 C.ar    1  UNL1        0.1193
     15 N          63.5396   81.2840   10.7845 N.ar    1  UNL1       -0.2223
     16 C          63.8547   82.7439   10.9240 C.ar    1  UNL1        0.1788
     17 C          65.4686   84.8416   14.2117 C.3     1  UNL1        0.0197
     18 C          63.9749   84.8838   14.0801 C.3     1  UNL1        0.0827
     19 N          63.1247   85.1854   15.2784 N.3     1  UNL1       -0.2696
     20 C          63.5651   86.2226   16.2686 C.3     1  UNL1        0.0897
     21 C          61.8341   84.4500   15.4866 C.3     1  UNL1        0.0897
     22 O          59.5602   90.0458    7.6379 O.3     1  UNL1       -0.4706
     23 C          59.1915   89.8469    6.1975 C.3     1  UNL1        0.2320
     24 C          59.6918   90.8038    5.1563 C.ar    1  UNL1        0.0214
     25 C          58.7460   91.7746    4.5136 C.ar    1  UNL1        0.0024
     26 C          59.2462   92.7315    3.4724 C.ar    1  UNL1        0.0367
     27 C          60.6922   92.7175    3.0738 C.ar    1  UNL1        0.1391
     28 C          61.6380   91.7466    3.7165 C.ar    1  UNL1        0.0367
     29 C          61.1378   90.7898    4.7577 C.ar    1  UNL1        0.0024
     30 O          61.1924   93.6744    2.0326 O.3     1  UNL1       -0.4694
     31 C          62.0318   93.1732    0.8949 C.3     1  UNL1        0.2469
     32 C          61.3821   92.7690   -0.3953 C.2     1  UNL1        0.0940
     33 O          60.1086   91.9766   -0.3777 O.co2   1  UNL1       -0.5454
     34 O          62.0059   93.1572   -1.7030 O.co2   1  UNL1       -0.5454
@<TRIPOS>UNITY_ATOM_ATTR
33 1
charge -1
@<TRIPOS>BOND
     1    17    18    1
     2    18    11    1
     3    11     1    1
     4     1     2   ar
     5     2     3   ar
     6     3     4   ar
     7     4     5   ar
     8     5     6   ar
     9     6    22    1
    10    22    23    1
    11    23    24    1
    12    24    25   ar
    13    25    26   ar
    14    26    27   ar
    15    27    30    1
    16    30    31    1
    17    31    32    1
    18    32    33   ar
    19    32    34   ar
    20    27    28   ar
    21    28    29   ar
    22     6     7   ar
    23     7     8   ar
    24     8     9   ar
    25     9    10   ar
    26    11    12    1
    27    12    13   ar
    28    13    14   ar
    29    14    15   ar
    30    15    16   ar
    31    18    19    1
    32    19    20    1
    33    19    21    1
    34    10     1   ar
    35    16    12   ar
    36     9     4   ar
    37    29    24   ar
@<TRIPOS>MOLECULE
*****
 34 37 0 0 0
SMALL
GASTEIGER

@<TRIPOS>ATOM
      1 C          63.3289   89.6903   12.5369 C.ar    1  UNL1       -0.0004
      2 C          62.6588   90.9006   11.9571 C.ar    1  UNL1       -0.0024
      3 C          61.7482   90.7589   10.7737 C.ar    1  UNL1       -0.0002
      4 C          61.5076   89.4069   10.1701 C.ar    1  UNL1        0.0030
      5 C          60.5968   89.2653    8.9866 C.ar    1  UNL1        0.0369
      6 C          60.3563   87.9133    8.3830 C.ar    1  UNL1        0.1391
      7 C          61.0264   86.7030    8.9629 C.ar    1  UNL1        0.0369
      8 C          61.9371   86.8447   10.1463 C.ar    1  UNL1        0.0031
      9 C          62.1777   88.1967   10.7499 C.ar    1  UNL1       -0.0001
     10 C          63.0883   88.3384   11.9333 C.ar    1  UNL1       -0.0024
     11 C          64.2397   89.8320   13.7204 C.3     1  UNL1        0.1240
     12 N          65.2424   90.9467   13.7660 N.ar    1  UNL1       -0.3045
     13 C          65.2787   92.1377   12.8548 C.ar    1  UNL1        0.0983
     14 C          66.4436   92.9932   13.2564 C.ar    1  UNL1        0.1193
     15 N          67.1271   92.3309   14.4157 N.ar    1  UNL1       -0.2223
     16 C          66.3847   91.0662   14.7307 C.ar    1  UNL1        0.1788
     17 C          64.6888   87.4687   14.7019 C.3     1  UNL1        0.0197
     18 C          64.1477   88.8590   14.8583 C.3     1  UNL1        0.0827
     19 N          63.5146   89.2762   16.1525 N.3     1  UNL1       -0.2696
     20 C          63.4308   90.7301   16.5121 C.3     1  UNL1        0.0897
     21 C          62.9654   88.2396   17.0873 C.3     1  UNL1        0.0897
     22 O          59.4456   87.7716    7.1995 O.3     1  UNL1       -0.4706
     23 C          58.4366   88.8397    6.8974 C.3     1  UNL1        0.2320
     24 C          58.7978   89.9771    5.9887 C.ar    1  UNL1        0.0214
     25 C          57.7293   90.8986    5.4795 C.ar    1  UNL1        0.0024
     26 C          58.0904   92.0361    4.5708 C.ar    1  UNL1        0.0367
     27 C          59.5200   92.2520    4.1712 C.ar    1  UNL1        0.1391
     28 C          60.5885   91.3305    4.6804 C.ar    1  UNL1        0.0367
     29 C          60.2273   90.1931    5.5892 C.ar    1  UNL1        0.0024
     30 O          59.8812   93.3894    3.2625 O.3     1  UNL1       -0.4694
     31 C          60.2062   93.1246    1.8223 C.3     1  UNL1        0.2469
     32 C          61.6363   93.0838    1.3714 C.2     1  UNL1        0.0940
     33 O          62.1388   94.0901    0.3790 O.co2   1  UNL1       -0.5454
     34 O          62.5639   92.0369    1.9130 O.co2   1  UNL1       -0.5454
@<TRIPOS>UNITY_ATOM_ATTR
33 1
charge -1
@<TRIPOS>BOND
     1    17    18    1
     2    18    11    1
     3    11     1    1
     4     1     2   ar
     5     2     3   ar
     6     3     4   ar
     7     4     5   ar
     8     5     6   ar
     9     6    22    1
    10    22    23    1
    11    23    24    1
    12    24    25   ar
    13    25    26   ar
    14    26    27   ar
    15    27    30    1
    16    30    31    1
    17    31    32    1
    18    32    33   ar
    19    32    34   ar
    20    27    28   ar
    21    28    29   ar
    22     6     7   ar
    23     7     8   ar
    24     8     9   ar
    25     9    10   ar
    26    11    12    1
    27    12    13   ar
    28    13    14   ar
    29    14    15   ar
    30    15    16   ar
    31    18    19    1
    32    19    20    1
    33    19    21    1
    34    10     1   ar
    35    16    12   ar
    36     9     4   ar
    37    29    24   ar
@<TRIPOS>MOLECULE
*****
 34 37 0 0 0
SMALL
GASTEIGER

@<TRIPOS>ATOM
      1 C          62.7243   84.4047   12.1379 C.ar    1  UNL1       -0.0004
      2 C          63.3008   83.8941   10.8507 C.ar    1  UNL1       -0.0024
      3 C          62.9058   84.5264    9.5491 C.ar    1  UNL1       -0.0002
      4 C          61.9344   85.6692    9.5346 C.ar    1  UNL1        0.0030
      5 C          61.5395   86.3015    8.2329 C.ar    1  UNL1        0.0369
      6 C          60.5681   87.4444    8.2185 C.ar    1  UNL1        0.1391
      7 C          59.9916   87.9550    9.5058 C.ar    1  UNL1        0.0369
      8 C          60.3865   87.3227   10.8074 C.ar    1  UNL1        0.0031
      9 C          61.3579   86.1799   10.8218 C.ar    1  UNL1       -0.0001
     10 C          61.7529   85.5476   12.1234 C.ar    1  UNL1       -0.0024
     11 C          63.1192   83.7725   13.4396 C.3     1  UNL1        0.1240
     12 N          63.1189   84.5867   14.6994 N.ar    1  UNL1       -0.3045
     13 C          64.0881   85.6785   15.0438 C.ar    1  UNL1        0.0983
     14 C          63.7176   86.2186   16.3932 C.ar    1  UNL1        0.1193
     15 N          62.5194   85.4606   16.8829 N.ar    1  UNL1       -0.2223
     16 C          62.1495   84.4520   15.8360 C.ar    1  UNL1        0.1788
     17 C          64.9292   81.9441   13.8017 C.3     1  UNL1        0.0197
     18 C          63.5144   82.3261   13.4814 C.3     1  UNL1        0.0827
     19 N          62.4949   81.2617   13.2030 N.3     1  UNL1       -0.2696
     20 C          61.2888   81.1293   14.0850 C.3     1  UNL1        0.0897
     21 C          62.6814   80.3297   12.0426 C.3     1  UNL1        0.0897
     22 O          60.1731   88.0766    6.9169 O.3     1  UNL1       -0.4706
     23 C          59.1836   89.2039    6.9004 C.3     1  UNL1        0.2320
     24 C          59.3025   90.2912    5.8739 C.ar    1  UNL1        0.0214
     25 C          60.6424   90.6281    5.2900 C.ar    1  UNL1        0.0024
     26 C          60.7613   91.7154    4.2635 C.ar    1  UNL1        0.0367
     27 C          59.5402   92.4658    3.8209 C.ar    1  UNL1        0.1391
     28 C          58.2002   92.1288    4.4049 C.ar    1  UNL1        0.0367
     29 C          58.0814   91.0416    5.4314 C.ar    1  UNL1        0.0024
     30 O          59.6591   93.5530    2.7945 O.3     1  UNL1       -0.4694
     31 C          59.4438   93.2410    1.3432 C.3     1  UNL1        0.2469
     32 C          60.6188   93.1327    0.4170 C.2     1  UNL1        0.0940
     33 O          61.1077   94.3446   -0.3192 O.co2   1  UNL1       -0.5454
     34 O          61.3048   91.8123    0.2271 O.co2   1  UNL1       -0.5454
@<TRIPOS>UNITY_ATOM_ATTR
33 1
charge -1
@<TRIPOS>BOND
     1    17    18    1
     2    18    11    1
     3    11     1    1
     4     1     2   ar
     5     2     3   ar
     6     3     4   ar
     7     4     5   ar
     8     5     6   ar
     9     6    22    1
    10    22    23    1
    11    23    24    1
    12    24    25   ar
    13    25    26   ar
    14    26    27   ar
    15    27    30    1
    16    30    31    1
    17    31    32    1
    18    32    33   ar
    19    32    34   ar
    20    27    28   ar
    21    28    29   ar
    22     6     7   ar
    23     7     8   ar
    24     8     9   ar
    25     9    10   ar
    26    11    12    1
    27    12    13   ar
    28    13    14   ar
    29    14    15   ar
    30    15    16   ar
    31    18    19    1
    32    19    20    1
    33    19    21    1
    34    10     1   ar
    35    16    12   ar
    36     9     4   ar
    37    29    24   ar
@<TRIPOS>MOLECULE
*****
 34 37 0 0 0
SMALL
GASTEIGER

@<TRIPOS>ATOM
      1 C          63.5478   85.6278   13.0194 C.ar    1  UNL1       -0.0004
      2 C          63.9649   85.3507   14.4333 C.ar    1  UNL1       -0.0024
      3 C          64.1263   86.4834   15.4033 C.ar    1  UNL1       -0.0002
      4 C          63.8704   87.8932   14.9593 C.ar    1  UNL1        0.0030
      5 C          64.0318   89.0260   15.9294 C.ar    1  UNL1        0.0369
      6 C          63.7759   90.4357   15.4854 C.ar    1  UNL1        0.1391
      7 C          63.3588   90.7127   14.0715 C.ar    1  UNL1        0.0369
      8 C          63.1974   89.5800   13.1015 C.ar    1  UNL1        0.0031
      9 C          63.4533   88.1702   13.5454 C.ar    1  UNL1       -0.0001
     10 C          63.2919   87.0375   12.5755 C.ar    1  UNL1       -0.0024
     11 C          63.3864   84.4950   12.0494 C.3     1  UNL1        0.1240
     12 N          62.9569   84.7709   10.6389 N.ar    1  UNL1       -0.3045
     13 C          61.7842   85.6082   10.2222 C.ar    1  UNL1        0.0983
     14 C          61.7271   85.6127    8.7233 C.ar    1  UNL1        0.1193
     15 N          62.8646   84.7782    8.2136 N.ar    1  UNL1       -0.2223
     16 C          63.6246   84.2579    9.3976 C.ar    1  UNL1        0.1788
     17 C          64.9801   82.4483   12.1963 C.3     1  UNL1        0.0197
     18 C          63.6546   83.0865   12.4898 C.3     1  UNL1        0.0827
     19 N          62.5975   82.3159   13.2238 N.3     1  UNL1       -0.2696
     20 C          62.0866   82.8138   14.5434 C.3     1  UNL1        0.0897
     21 C          62.0512   81.0477   12.6382 C.3     1  UNL1        0.0897
     22 O          63.9373   91.5684   16.4554 O.3     1  UNL1       -0.4706
     23 C          65.1326   92.4700   16.3636 C.3     1  UNL1        0.2320
     24 C          66.0675   92.3594   15.1959 C.ar    1  UNL1        0.0214
     25 C          65.5964   92.7282   13.8204 C.ar    1  UNL1        0.0024
     26 C          66.5313   92.6176   12.6526 C.ar    1  UNL1        0.0367
     27 C          67.9374   92.1382   12.8603 C.ar    1  UNL1        0.1391
     28 C          68.4085   91.7694   14.2359 C.ar    1  UNL1        0.0367
     29 C          67.4736   91.8800   15.4036 C.ar    1  UNL1        0.0024
     30 O          68.8723   92.0276   11.6926 O.3     1  UNL1       -0.4694
     31 C          68.3263   91.8061   10.3131 C.3     1  UNL1        0.2469
     32 C          68.6829   92.7518    9.2046 C.2     1  UNL1        0.0940
     33 O          69.1378   92.2163    7.8793 O.co2   1  UNL1       -0.5454
     34 O          68.5845   94.2327    9.4214 O.co2   1  UNL1       -0.5454
@<TRIPOS>UNITY_ATOM_ATTR
33 1
charge -1
@<TRIPOS>BOND
     1    17    18    1
     2    18    11    1
     3    11     1    1
     4     1     2   ar
     5     2     3   ar
     6     3     4   ar
     7     4     5   ar
     8     5     6   ar
     9     6    22    1
    10    22    23    1
    11    23    24    1
    12    24    25   ar
    13    25    26   ar
    14    26    27   ar
    15    27    30    1
    16    30    31    1
    17    31    32    1
    18    32    33   ar
    19    32    34   ar
    20    27    28   ar
    21    28    29   ar
    22     6     7   ar
    23     7     8   ar
    24     8     9   ar
    25     9    10   ar
    26    11    12    1
    27    12    13   ar
    28    13    14   ar
    29    14    15   ar
    30    15    16   ar
    31    18    19    1
    32    19    20    1
    33    19    21    1
    34    10     1   ar
    35    16    12   ar
    36     9     4   ar
    37    29    24   ar
@<TRIPOS>MOLECULE
*****
 34 37 0 0 0
SMALL
GASTEIGER

@<TRIPOS>ATOM
      1 C          62.8935   84.8526   12.6223 C.ar    1  UNL1       -0.0004
      2 C          63.6551   85.7135   13.5859 C.ar    1  UNL1       -0.0024
      3 C          63.7136   87.1982   13.3806 C.ar    1  UNL1       -0.0002
      4 C          63.0104   87.8220   12.2117 C.ar    1  UNL1        0.0030
      5 C          63.0689   89.3068   12.0064 C.ar    1  UNL1        0.0369
      6 C          62.3657   89.9306   10.8375 C.ar    1  UNL1        0.1391
      7 C          61.6040   89.0695    9.8738 C.ar    1  UNL1        0.0369
      8 C          61.5456   87.5848   10.0791 C.ar    1  UNL1        0.0031
      9 C          62.2488   86.9611   11.2480 C.ar    1  UNL1       -0.0001
     10 C          62.1903   85.4764   11.4533 C.ar    1  UNL1       -0.0024
     11 C          62.8350   83.3678   12.8275 C.3     1  UNL1        0.1240
     12 N          63.2305   82.4409   11.7165 N.ar    1  UNL1       -0.3045
     13 C          62.5761   81.1326   11.3847 C.ar    1  UNL1        0.0983
     14 C          63.2909   80.5427   10.2052 C.ar    1  UNL1        0.1193
     15 N          64.3871   81.4865    9.8081 N.ar    1  UNL1       -0.2223
     16 C          64.3497   82.6596   10.7421 C.ar    1  UNL1        0.1788
     17 C          62.2175   83.7177   15.3268 C.3     1  UNL1        0.0197
     18 C          62.3811   82.8100   14.1439 C.3     1  UNL1        0.0827
     19 N          62.0907   81.3444   14.2773 N.3     1  UNL1       -0.2696
     20 C          60.6748   80.8522   14.2214 C.3     1  UNL1        0.0897
     21 C          63.2161   80.3710   14.4666 C.3     1  UNL1        0.0897
     22 O          62.4242   91.4153   10.6321 O.3     1  UNL1       -0.4706
     23 C          63.6791   92.0517   10.1122 C.3     1  UNL1        0.2320
     24 C          64.8925   92.1435   10.9892 C.ar    1  UNL1        0.0214
     25 C          64.7674   91.9239   12.4678 C.ar    1  UNL1        0.0024
     26 C          65.9808   92.0156   13.3449 C.ar    1  UNL1        0.0367
     27 C          67.3192   92.3270   12.7434 C.ar    1  UNL1        0.1391
     28 C          67.4442   92.5466   11.2648 C.ar    1  UNL1        0.0367
     29 C          66.2308   92.4548   10.3878 C.ar    1  UNL1        0.0024
     30 O          68.5326   92.4188   13.6205 O.3     1  UNL1       -0.4694
     31 C          68.4160   92.1535   15.0922 C.3     1  UNL1        0.2469
     32 C          67.8892   93.2192   16.0070 C.2     1  UNL1        0.0940
     33 O          66.5662   93.0351   16.6895 O.co2   1  UNL1       -0.5454
     34 O          68.6855   94.4690   16.2393 O.co2   1  UNL1       -0.5454
@<TRIPOS>UNITY_ATOM_ATTR
33 1
charge -1
@<TRIPOS>BOND
     1    17    18    1
     2    18    11    1
     3    11     1    1
     4     1     2   ar
     5     2     3   ar
     6     3     4   ar
     7     4     5   ar
     8     5     6   ar
     9     6    22    1
    10    22    23    1
    11    23    24    1
    12    24    25   ar
    13    25    26   ar
    14    26    27   ar
    15    27    30    1
    16    30    31    1
    17    31    32    1
    18    32    33   ar
    19    32    34   ar
    20    27    28   ar
    21    28    29   ar
    22     6     7   ar
    23     7     8   ar
    24     8     9   ar
    25     9    10   ar
    26    11    12    1
    27    12    13   ar
    28    13    14   ar
    29    14    15   ar
    30    15    16   ar
    31    18    19    1
    32    19    20    1
    33    19    21    1
    34    10     1   ar
    35    16    12   ar
    36     9     4   ar
    37    29    24   ar
