@<TRIPOS>MOLECULE
*****
 45 48 0 0 0
SMALL
GASTEIGER

@<TRIPOS>ATOM
      1 N          63.4412   85.5708   13.8537 N.pl3   1  UNL1       -0.3043
      2 C          63.0402   85.8042   15.2802 C.3     1  UNL1        0.1123
      3 C          63.2008   87.1645   15.8915 C.3     1  UNL1        0.1149
      4 N          63.7625   88.2915   15.0763 N.am    1  UNL1       -0.2747
      5 C          63.9231   89.6518   15.6876 C.2     1  UNL1        0.2442
      6 O          63.5221   89.8852   17.1140 O.2     1  UNL1       -0.2731
      7 C          64.1634   88.0582   13.6498 C.3     1  UNL1        0.1149
      8 C          64.0028   86.6978   13.0386 C.3     1  UNL1        0.1123
      9 C          62.6775   84.0685   11.8764 C.ar    1  UNL1        0.0053
     10 C          62.5169   82.7081   11.2652 C.ar    1  UNL1        0.0021
     11 C          62.9593   81.4897   12.0200 C.ar    1  UNL1        0.0712
     12 C          63.5623   81.6317   13.3861 C.ar    1  UNL1        0.0051
     13 C          63.7229   82.9920   13.9973 C.ar    1  UNL1        0.0142
     14 C          63.2805   84.2104   13.2424 C.ar    1  UNL1        0.0451
     15 C          62.7986   80.1293   11.4087 C.3     1  UNL1        0.4186
     16 F          62.6380   78.7690   10.7975 F       1  UNL1       -0.1659
     17 F          62.4413   79.5676   12.7528 F       1  UNL1       -0.1659
     18 F          63.1560   80.6911   10.0646 F       1  UNL1       -0.1659
     19 C          62.2351   85.2869   11.1215 C.3     1  UNL1        0.0780
     20 N          61.1397   86.1524   11.6702 N.3     1  UNL1       -0.2930
     21 H          61.1756   86.0644   12.6857 H       1  UNL1        0.1236
     22 C          61.1189   87.6204   11.3632 C.3     1  UNL1        0.1009
     23 C          59.8130   88.3565   11.3068 C.3     1  UNL1        0.1542
     24 O          59.0196   88.5732   12.5612 O.3     1  UNL1       -0.3805
     25 H          58.7098   87.7185   12.8996 H       1  UNL1        0.2105
     26 C          62.8880   85.6398    9.8181 C.3     1  UNL1        0.0203
     27 C          60.7332   86.0667    8.4307 C.3     1  UNL1        0.0001
     28 C          62.1215   85.5083    8.5354 C.3     1  UNL1        0.0017
     29 C          62.7433   84.8184    7.3575 C.3     1  UNL1        0.0001
     30 C          64.4847   90.7788   14.8724 C.3     1  UNL1        0.1564
     31 N          65.7645   91.4408   15.2893 N.am    1  UNL1       -0.2727
     32 C          67.1200   91.1908   14.6975 C.3     1  UNL1        0.0943
     33 C          68.1068   92.0646   15.4136 C.3     1  UNL1        0.0311
     34 C          67.3612   92.8545   16.4481 C.3     1  UNL1        0.0870
     35 C          65.9136   92.4690   16.3713 C.2     1  UNL1        0.2260
     36 O          64.8091   93.0157   17.2263 O.2     1  UNL1       -0.2749
     37 C          63.7665   91.2437   13.6403 C.3     1  UNL1        0.0564
     38 C          64.5223   91.9465   12.5519 C.ar    1  UNL1       -0.0094
     39 C          65.5450   92.9871   12.9003 C.ar    1  UNL1       -0.0025
     40 C          66.3009   93.6899   11.8119 C.ar    1  UNL1        0.0111
     41 C          66.0341   93.3520   10.3749 C.ar    1  UNL1        0.0585
     42 CL         66.7900   94.0547    9.2864 Cl      1  UNL1       -0.0822
     43 C          65.0115   92.3114   10.0265 C.ar    1  UNL1        0.0225
     44 C          64.2556   91.6087   11.1150 C.ar    1  UNL1        0.0546
     45 CL         63.2330   90.5681   10.7666 Cl      1  UNL1       -0.0825
@<TRIPOS>BOND
     1    27    28    1
     2    28    29    1
     3    28    26    1
     4    19    26    1
     5    19    20    1
     6    20    22    1
     7    22    23    1
     8    23    24    1
     9    19     9    1
    10     9    10   ar
    11    10    11   ar
    12    11    15    1
    13    15    16    1
    14    15    17    1
    15    15    18    1
    16    11    12   ar
    17    12    13   ar
    18    13    14   ar
    19    14     1    1
    20     1     2    1
    21     2     3    1
    22     3     4    1
    23     4     5   am
    24     5     6    2
    25     5    30    1
    26    30    37    1
    27    37    38    1
    28    38    39   ar
    29    39    40   ar
    30    40    41   ar
    31    41    42    1
    32    41    43   ar
    33    43    44   ar
    34    44    45    1
    35    30    31    1
    36    31    32    1
    37    32    33    1
    38    33    34    1
    39    34    35    1
    40    35    36    2
    41     4     7    1
    42     7     8    1
    43    14     9   ar
    44     8     1    1
    45    44    38   ar
    46    35    31   am
    47    20    21    1
    48    24    25    1
@<TRIPOS>MOLECULE
*****
 45 48 0 0 0
SMALL
GASTEIGER

@<TRIPOS>ATOM
      1 N          61.8311   85.7677    9.6830 N.pl3   1  UNL1       -0.3043
      2 C          63.0769   85.1252    9.1490 C.3     1  UNL1        0.1123
      3 C          63.8223   84.1262    9.9833 C.3     1  UNL1        0.1149
      4 N          63.3220   83.7697   11.3518 N.am    1  UNL1       -0.2747
      5 C          64.0675   82.7707   12.1862 C.2     1  UNL1        0.2442
      6 O          65.3133   82.1282   11.6522 O.2     1  UNL1       -0.2731
      7 C          62.0762   84.4122   11.8858 C.3     1  UNL1        0.1149
      8 C          61.3307   85.4113   11.0514 C.3     1  UNL1        0.1123
      9 C          60.9099   88.1728    9.3406 C.ar    1  UNL1        0.0053
     10 C          60.1645   89.1718    8.5061 C.ar    1  UNL1        0.0021
     11 C          59.5947   88.7647    7.1796 C.ar    1  UNL1        0.0712
     12 C          59.7704   87.3587    6.6875 C.ar    1  UNL1        0.0051
     13 C          60.5158   86.3597    7.5220 C.ar    1  UNL1        0.0142
     14 C          61.0856   86.7668    8.8485 C.ar    1  UNL1        0.0451
     15 C          58.8492   89.7637    6.3451 C.3     1  UNL1        0.4186
     16 F          58.1038   90.7627    5.5108 F       1  UNL1       -0.1659
     17 F          57.5513   89.2653    6.9080 F       1  UNL1       -0.1659
     18 F          60.1472   90.2622    5.7823 F       1  UNL1       -0.1659
     19 C          61.4797   88.5799   10.6671 C.3     1  UNL1        0.0780
     20 N          60.6213   88.5391   11.8964 N.3     1  UNL1       -0.2930
     21 H          61.2262   88.7662   12.6857 H       1  UNL1        0.1236
     22 C          59.4192   89.4302   12.0017 C.3     1  UNL1        0.1009
     23 C          59.5015   90.8574   11.5473 C.3     1  UNL1        0.1542
     24 O          58.2845   91.7327   11.6003 O.3     1  UNL1       -0.3805
     25 H          57.6205   91.4014   10.9756 H       1  UNL1        0.2105
     26 C          62.9080   89.0278   10.7643 C.3     1  UNL1        0.0203
     27 C          63.5392   90.7833   12.5725 C.3     1  UNL1        0.0001
     28 C          63.2258   90.4432   11.1455 C.3     1  UNL1        0.0017
     29 C          63.2303   91.5187   10.0999 C.3     1  UNL1        0.0001
     30 C          63.5671   82.4142   13.5546 C.3     1  UNL1        0.1564
     31 N          62.3564   81.5419   13.7068 N.am    1  UNL1       -0.2727
     32 C          61.1616   81.8339   14.5655 C.3     1  UNL1        0.0943
     33 C          60.1946   80.6970   14.4164 C.3     1  UNL1        0.0311
     34 C          60.7917   79.7023   13.4656 C.3     1  UNL1        0.0870
     35 C          62.1278   80.2245   13.0270 C.2     1  UNL1        0.2260
     36 O          63.0697   79.5480   12.0757 O.2     1  UNL1       -0.2749
     37 C          64.2776   82.9300   14.7709 C.3     1  UNL1        0.0564
     38 C          63.9350   84.2822   15.3225 C.ar    1  UNL1       -0.0094
     39 C          62.7283   84.4515   16.1974 C.ar    1  UNL1       -0.0025
     40 C          62.3857   85.8036   16.7490 C.ar    1  UNL1        0.0111
     41 C          63.2498   86.9864   16.4259 C.ar    1  UNL1        0.0585
     42 CL         62.9072   88.3386   16.9775 Cl      1  UNL1       -0.0822
     43 C          64.4564   86.8171   15.5511 C.ar    1  UNL1        0.0225
     44 C          64.7990   85.4649   14.9994 C.ar    1  UNL1        0.0546
     45 CL         66.0056   85.2956   14.1246 Cl      1  UNL1       -0.0825
@<TRIPOS>BOND
     1    27    28    1
     2    28    29    1
     3    28    26    1
     4    19    26    1
     5    19    20    1
     6    20    22    1
     7    22    23    1
     8    23    24    1
     9    19     9    1
    10     9    10   ar
    11    10    11   ar
    12    11    15    1
    13    15    16    1
    14    15    17    1
    15    15    18    1
    16    11    12   ar
    17    12    13   ar
    18    13    14   ar
    19    14     1    1
    20     1     2    1
    21     2     3    1
    22     3     4    1
    23     4     5   am
    24     5     6    2
    25     5    30    1
    26    30    37    1
    27    37    38    1
    28    38    39   ar
    29    39    40   ar
    30    40    41   ar
    31    41    42    1
    32    41    43   ar
    33    43    44   ar
    34    44    45    1
    35    30    31    1
    36    31    32    1
    37    32    33    1
    38    33    34    1
    39    34    35    1
    40    35    36    2
    41     4     7    1
    42     7     8    1
    43    14     9   ar
    44     8     1    1
    45    44    38   ar
    46    35    31   am
    47    20    21    1
    48    24    25    1
@<TRIPOS>MOLECULE
*****
 45 48 0 0 0
SMALL
GASTEIGER

@<TRIPOS>ATOM
      1 N          61.6790   86.2381    9.4432 N.pl3   1  UNL1       -0.3043
      2 C          62.8599   85.5577    8.8166 C.3     1  UNL1        0.1123
      3 C          63.6730   84.5814    9.6138 C.3     1  UNL1        0.1149
      4 N          63.3054   84.2855   11.0377 N.am    1  UNL1       -0.2747
      5 C          64.1185   83.3092   11.8349 C.2     1  UNL1        0.2442
      6 O          65.2994   82.6288   11.2083 O.2     1  UNL1       -0.2731
      7 C          62.1245   84.9660   11.6643 C.3     1  UNL1        0.1149
      8 C          61.3113   85.9423   10.8670 C.3     1  UNL1        0.1123
      9 C          60.8102   88.6560    9.0568 C.ar    1  UNL1        0.0053
     10 C          59.9971   89.6322    8.2595 C.ar    1  UNL1        0.0021
     11 C          59.2396   89.1669    7.0513 C.ar    1  UNL1        0.0712
     12 C          59.2952   87.7254    6.6404 C.ar    1  UNL1        0.0051
     13 C          60.1084   86.7492    7.4377 C.ar    1  UNL1        0.0142
     14 C          60.8659   87.2145    8.6459 C.ar    1  UNL1        0.0451
     15 C          58.4264   90.1433    6.2540 C.3     1  UNL1        0.4186
     16 F          57.6133   91.1196    5.4567 F       1  UNL1       -0.1659
     17 F          59.6861   90.8056    5.7804 F       1  UNL1       -0.1659
     18 F          57.1667   89.4809    6.7277 F       1  UNL1       -0.1659
     19 C          61.5677   89.1213   10.2650 C.3     1  UNL1        0.0780
     20 N          62.9268   89.7359   10.1073 N.3     1  UNL1       -0.2930
     21 H          63.1025   89.8090    9.1052 H       1  UNL1        0.1236
     22 C          63.2127   91.0853   10.6966 C.3     1  UNL1        0.1009
     23 C          63.9405   91.1940   12.0038 C.3     1  UNL1        0.1542
     24 O          63.1686   91.3205   13.2837 O.3     1  UNL1       -0.3805
     25 H          62.6927   92.1656   13.2921 H       1  UNL1        0.2105
     26 C          60.9660   88.9719   11.6309 C.3     1  UNL1        0.0203
     27 C          58.6254   88.8576   12.7526 C.3     1  UNL1        0.0001
     28 C          59.6416   89.6043   11.9403 C.3     1  UNL1        0.0017
     29 C          59.3332   90.9834   11.4373 C.3     1  UNL1        0.0001
     30 C          63.7508   83.0134   13.2587 C.3     1  UNL1        0.1564
     31 N          62.6021   82.0977   13.5619 N.am    1  UNL1       -0.2727
     32 C          61.5242   82.3414   14.5762 C.3     1  UNL1        0.0943
     33 C          60.5855   81.1719   14.5452 C.3     1  UNL1        0.0311
     34 C          61.0833   80.2052   13.5119 C.3     1  UNL1        0.0870
     35 C          62.3296   80.7774   12.9041 C.2     1  UNL1        0.2260
     36 O          63.1580   80.1411   11.8277 O.2     1  UNL1       -0.2749
     37 C          64.5319   83.6333   14.3794 C.3     1  UNL1        0.0564
     38 C          64.1922   85.0144   14.8560 C.ar    1  UNL1       -0.0094
     39 C          64.7185   86.2118   14.1216 C.ar    1  UNL1       -0.0025
     40 C          64.3789   87.5929   14.5982 C.ar    1  UNL1        0.0111
     41 C          63.5130   87.7766   15.8093 C.ar    1  UNL1        0.0585
     42 CL         63.1734   89.1577   16.2859 Cl      1  UNL1       -0.0822
     43 C          62.9868   86.5792   16.5436 C.ar    1  UNL1        0.0225
     44 C          63.3264   85.1981   16.0670 C.ar    1  UNL1        0.0546
     45 CL         62.8002   84.0007   16.8014 Cl      1  UNL1       -0.0825
@<TRIPOS>BOND
     1    27    28    1
     2    28    29    1
     3    28    26    1
     4    19    26    1
     5    19    20    1
     6    20    22    1
     7    22    23    1
     8    23    24    1
     9    19     9    1
    10     9    10   ar
    11    10    11   ar
    12    11    15    1
    13    15    16    1
    14    15    17    1
    15    15    18    1
    16    11    12   ar
    17    12    13   ar
    18    13    14   ar
    19    14     1    1
    20     1     2    1
    21     2     3    1
    22     3     4    1
    23     4     5   am
    24     5     6    2
    25     5    30    1
    26    30    37    1
    27    37    38    1
    28    38    39   ar
    29    39    40   ar
    30    40    41   ar
    31    41    42    1
    32    41    43   ar
    33    43    44   ar
    34    44    45    1
    35    30    31    1
    36    31    32    1
    37    32    33    1
    38    33    34    1
    39    34    35    1
    40    35    36    2
    41     4     7    1
    42     7     8    1
    43    14     9   ar
    44     8     1    1
    45    44    38   ar
    46    35    31   am
    47    20    21    1
    48    24    25    1
@<TRIPOS>MOLECULE
*****
 45 48 0 0 0
SMALL
GASTEIGER

@<TRIPOS>ATOM
      1 N          63.4331   85.4990   14.0034 N.pl3   1  UNL1       -0.3043
      2 C          62.9771   85.8263   15.3944 C.3     1  UNL1        0.1123
      3 C          63.1478   87.2161   15.9321 C.3     1  UNL1        0.1149
      4 N          63.7745   88.2788   15.0787 N.am    1  UNL1       -0.2747
      5 C          63.9453   89.6686   15.6164 C.2     1  UNL1        0.2442
      6 O          63.4893   89.9959   17.0075 O.2     1  UNL1       -0.2731
      7 C          64.2305   87.9515   13.6877 C.3     1  UNL1        0.1149
      8 C          64.0597   86.5615   13.1500 C.3     1  UNL1        0.1123
      9 C          62.7638   83.9023   12.0661 C.ar    1  UNL1        0.0053
     10 C          62.5931   82.5124   11.5285 C.ar    1  UNL1        0.0021
     11 C          62.9208   81.3293   12.3905 C.ar    1  UNL1        0.0712
     12 C          63.4193   81.5361   13.7900 C.ar    1  UNL1        0.0051
     13 C          63.5900   82.9260   14.3276 C.ar    1  UNL1        0.0142
     14 C          63.2623   84.1091   13.4657 C.ar    1  UNL1        0.0451
     15 C          62.7501   79.9394   11.8528 C.3     1  UNL1        0.4186
     16 F          62.5793   78.5496   11.3152 F       1  UNL1       -0.1659
     17 F          62.4366   79.4439   13.2334 F       1  UNL1       -0.1659
     18 F          63.0636   80.4349   10.4722 F       1  UNL1       -0.1659
     19 C          62.4361   85.0854   11.2042 C.3     1  UNL1        0.0780
     20 N          63.2695   85.3852    9.9937 N.3     1  UNL1       -0.2930
     21 H          64.2447   85.2838   10.2750 H       1  UNL1        0.1236
     22 C          63.0934   84.5763    8.7428 C.3     1  UNL1        0.1009
     23 C          62.5015   85.2085    7.5180 C.3     1  UNL1        0.1542
     24 O          62.3912   84.4207    6.2462 O.3     1  UNL1       -0.3805
     25 H          63.2794   84.2199    5.9122 H       1  UNL1        0.2105
     26 C          61.2750   85.9686   11.5529 C.3     1  UNL1        0.0203
     27 C          61.5047   88.5192   11.1145 C.3     1  UNL1        0.0001
     28 C          60.9721   87.1751   10.7146 C.3     1  UNL1        0.0017
     29 C          60.1367   87.0375    9.4764 C.3     1  UNL1        0.0001
     30 C          64.5719   90.7311   14.7631 C.3     1  UNL1        0.1564
     31 N          65.8344   91.4057   15.2117 N.am    1  UNL1       -0.2727
     32 C          67.2078   91.1631   14.6596 C.3     1  UNL1        0.0943
     33 C          68.1673   92.0487   15.3979 C.3     1  UNL1        0.0311
     34 C          67.3869   92.8386   16.4064 C.3     1  UNL1        0.0870
     35 C          65.9450   92.4412   16.2914 C.2     1  UNL1        0.2260
     36 O          64.8127   92.9840   17.1118 O.2     1  UNL1       -0.2749
     37 C          63.9362   91.1192   13.4610 C.3     1  UNL1        0.0564
     38 C          64.6486   92.0522   12.5272 C.ar    1  UNL1       -0.0094
     39 C          65.5851   93.0891   13.0730 C.ar    1  UNL1       -0.0025
     40 C          66.2976   94.0220   12.1391 C.ar    1  UNL1        0.0111
     41 C          66.0735   93.9180   10.6596 C.ar    1  UNL1        0.0585
     42 CL         66.7860   94.8510    9.7257 Cl      1  UNL1       -0.0822
     43 C          65.1371   92.8811   10.1139 C.ar    1  UNL1        0.0225
     44 C          64.4246   91.9482   11.0477 C.ar    1  UNL1        0.0546
     45 CL         63.4882   90.9113   10.5020 Cl      1  UNL1       -0.0825
@<TRIPOS>BOND
     1    27    28    1
     2    28    29    1
     3    28    26    1
     4    19    26    1
     5    19    20    1
     6    20    22    1
     7    22    23    1
     8    23    24    1
     9    19     9    1
    10     9    10   ar
    11    10    11   ar
    12    11    15    1
    13    15    16    1
    14    15    17    1
    15    15    18    1
    16    11    12   ar
    17    12    13   ar
    18    13    14   ar
    19    14     1    1
    20     1     2    1
    21     2     3    1
    22     3     4    1
    23     4     5   am
    24     5     6    2
    25     5    30    1
    26    30    37    1
    27    37    38    1
    28    38    39   ar
    29    39    40   ar
    30    40    41   ar
    31    41    42    1
    32    41    43   ar
    33    43    44   ar
    34    44    45    1
    35    30    31    1
    36    31    32    1
    37    32    33    1
    38    33    34    1
    39    34    35    1
    40    35    36    2
    41     4     7    1
    42     7     8    1
    43    14     9   ar
    44     8     1    1
    45    44    38   ar
    46    35    31   am
    47    20    21    1
    48    24    25    1
@<TRIPOS>MOLECULE
*****
 45 48 0 0 0
SMALL
GASTEIGER

@<TRIPOS>ATOM
      1 N          64.3487   90.8996   12.7182 N.pl3   1  UNL1       -0.3043
      2 C          63.3395   91.6294   11.8823 C.3     1  UNL1        0.1123
      3 C          62.3454   90.8594   11.0644 C.3     1  UNL1        0.1149
      4 N          62.3605   89.3595   11.0825 N.am    1  UNL1       -0.2747
      5 C          61.3665   88.5896   10.2647 C.2     1  UNL1        0.2442
      6 O          60.3572   89.3194    9.4287 O.2     1  UNL1       -0.2731
      7 C          63.3698   88.6297   11.9185 C.3     1  UNL1        0.1149
      8 C          64.3639   89.3998   12.7363 C.3     1  UNL1        0.1123
      9 C          66.2110   92.7038   12.8827 C.ar    1  UNL1        0.0053
     10 C          67.2050   93.4738   13.7006 C.ar    1  UNL1        0.0021
     11 C          67.3309   93.2097   15.1718 C.ar    1  UNL1        0.0712
     12 C          66.4628   92.1755   15.8251 C.ar    1  UNL1        0.0051
     13 C          65.4688   91.4055   15.0073 C.ar    1  UNL1        0.0142
     14 C          65.3429   91.6697   13.5361 C.ar    1  UNL1        0.0451
     15 C          68.3251   93.9797   15.9896 C.3     1  UNL1        0.4186
     16 F          69.3191   94.7497   16.8075 F       1  UNL1       -0.1659
     17 F          68.6814   92.7279   16.7351 F       1  UNL1       -0.1659
     18 F          67.9687   95.2316   15.2441 F       1  UNL1       -0.1659
     19 C          66.0850   92.9679   11.4116 C.3     1  UNL1        0.0780
     20 N          66.7142   92.0299   10.4246 N.3     1  UNL1       -0.2930
     21 H          66.3768   92.3037    9.5018 H       1  UNL1        0.1236
     22 C          68.2080   91.9337   10.3284 C.3     1  UNL1        0.1009
     23 C          68.9320   92.6079    9.2008 C.3     1  UNL1        0.1542
     24 O          69.0576   91.9212    7.8732 O.3     1  UNL1       -0.3805
     25 H          69.6093   91.1292    7.9698 H       1  UNL1        0.2105
     26 C          65.3299   94.1701   10.9274 C.3     1  UNL1        0.0203
     27 C          66.0499   96.5824   11.5699 C.3     1  UNL1        0.0001
     28 C          66.0650   95.4365   10.6019 C.3     1  UNL1        0.0017
     29 C          66.8151   95.5571    9.3086 C.3     1  UNL1        0.0001
     30 C          61.3816   87.0898   10.2828 C.3     1  UNL1        0.1564
     31 N          61.4498   86.3248    8.9943 N.am    1  UNL1       -0.2727
     32 C          62.6639   85.6427    8.4370 C.3     1  UNL1        0.0943
     33 C          62.2802   85.0039    7.1352 C.3     1  UNL1        0.0311
     34 C          60.8289   85.2912    6.8879 C.3     1  UNL1        0.0870
     35 C          60.3156   86.1076    8.0369 C.2     1  UNL1        0.2260
     36 O          58.9143   86.6172    8.1998 O.2     1  UNL1       -0.2749
     37 C          61.3287   86.3549   11.5894 C.3     1  UNL1        0.0564
     38 C          62.2098   85.1622   11.8153 C.ar    1  UNL1       -0.0094
     39 C          62.0930   83.9633   10.9213 C.ar    1  UNL1       -0.0025
     40 C          62.9741   82.7706   11.1471 C.ar    1  UNL1        0.0111
     41 C          63.9720   82.7767   12.2670 C.ar    1  UNL1        0.0585
     42 CL         64.8531   81.5839   12.4929 Cl      1  UNL1       -0.0822
     43 C          64.0888   83.9755   13.1610 C.ar    1  UNL1        0.0225
     44 C          63.2077   85.1682   12.9351 C.ar    1  UNL1        0.0546
     45 CL         63.3245   86.3670   13.8291 Cl      1  UNL1       -0.0825
@<TRIPOS>BOND
     1    27    28    1
     2    28    29    1
     3    28    26    1
     4    19    26    1
     5    19    20    1
     6    20    22    1
     7    22    23    1
     8    23    24    1
     9    19     9    1
    10     9    10   ar
    11    10    11   ar
    12    11    15    1
    13    15    16    1
    14    15    17    1
    15    15    18    1
    16    11    12   ar
    17    12    13   ar
    18    13    14   ar
    19    14     1    1
    20     1     2    1
    21     2     3    1
    22     3     4    1
    23     4     5   am
    24     5     6    2
    25     5    30    1
    26    30    37    1
    27    37    38    1
    28    38    39   ar
    29    39    40   ar
    30    40    41   ar
    31    41    42    1
    32    41    43   ar
    33    43    44   ar
    34    44    45    1
    35    30    31    1
    36    31    32    1
    37    32    33    1
    38    33    34    1
    39    34    35    1
    40    35    36    2
    41     4     7    1
    42     7     8    1
    43    14     9   ar
    44     8     1    1
    45    44    38   ar
    46    35    31   am
    47    20    21    1
    48    24    25    1
@<TRIPOS>MOLECULE
*****
 45 48 0 0 0
SMALL
GASTEIGER

@<TRIPOS>ATOM
      1 N          63.4507   86.4050   14.6740 N.pl3   1  UNL1       -0.3043
      2 C          62.9158   87.0533   15.9164 C.3     1  UNL1        0.1123
      3 C          63.2033   88.4996   16.1911 C.3     1  UNL1        0.1149
      4 N          64.0257   89.2978   15.2232 N.am    1  UNL1       -0.2747
      5 C          64.3132   90.7441   15.4978 C.2     1  UNL1        0.2442
      6 O          63.7783   91.3923   16.7403 O.2     1  UNL1       -0.2731
      7 C          64.5606   88.6495   13.9808 C.3     1  UNL1        0.1149
      8 C          64.2731   87.2031   13.7062 C.3     1  UNL1        0.1123
      9 C          62.6210   84.5420   13.0644 C.ar    1  UNL1        0.0053
     10 C          62.3336   83.0957   12.7898 C.ar    1  UNL1        0.0021
     11 C          62.5883   82.0660   13.8504 C.ar    1  UNL1        0.0712
     12 C          63.1305   82.4825   15.1854 C.ar    1  UNL1        0.0051
     13 C          63.4180   83.9289   15.4599 C.ar    1  UNL1        0.0142
     14 C          63.1632   84.9586   14.3994 C.ar    1  UNL1        0.0451
     15 C          62.3008   80.6195   13.5758 C.3     1  UNL1        0.4186
     16 F          62.0132   79.1732   13.3012 F       1  UNL1       -0.1659
     17 F          61.0971   80.6895   14.4681 F       1  UNL1       -0.1659
     18 F          63.5044   80.5496   12.6835 F       1  UNL1       -0.1659
     19 C          62.3663   85.5718   12.0038 C.3     1  UNL1        0.0780
     20 N          61.1401   86.4329   12.0736 N.3     1  UNL1       -0.2930
     21 H          61.2919   87.1008   12.8294 H       1  UNL1        0.1236
     22 C          60.7112   87.2258   10.8747 C.3     1  UNL1        0.1009
     23 C          61.0807   88.6753   10.7628 C.3     1  UNL1        0.1542
     24 O          62.3777   89.0713   10.1218 O.3     1  UNL1       -0.3805
     25 H          63.1166   88.7569   10.6660 H       1  UNL1        0.2105
     26 C          63.3378   85.7405   10.8735 C.3     1  UNL1        0.0203
     27 C          63.8144   83.4321    9.7806 C.3     1  UNL1        0.0001
     28 C          63.2719   84.8274    9.6853 C.3     1  UNL1        0.0017
     29 C          62.6635   85.3095    8.4018 C.3     1  UNL1        0.0001
     30 C          65.1356   91.5422   14.5300 C.3     1  UNL1        0.1564
     31 N          66.4769   92.0711   14.9436 N.am    1  UNL1       -0.2727
     32 C          66.7732   92.8403   16.1968 C.3     1  UNL1        0.0943
     33 C          68.2368   93.1684   16.2043 C.3     1  UNL1        0.0311
     34 C          68.8452   92.6020   14.9556 C.3     1  UNL1        0.0870
     35 C          67.7575   91.9239   14.1764 C.2     1  UNL1        0.2260
     36 O          67.9216   91.2218   12.8611 O.2     1  UNL1       -0.2749
     37 C          64.6166   91.8113   13.1486 C.3     1  UNL1        0.0564
     38 C          65.2637   92.8621   12.2958 C.ar    1  UNL1       -0.0094
     39 C          65.9493   94.0316   12.9379 C.ar    1  UNL1       -0.0025
     40 C          66.5964   95.0824   12.0852 C.ar    1  UNL1        0.0111
     41 C          66.5579   94.9636   10.5904 C.ar    1  UNL1        0.0585
     42 CL         67.2050   96.0144    9.7376 Cl      1  UNL1       -0.0822
     43 C          65.8723   93.7941    9.9483 C.ar    1  UNL1        0.0225
     44 C          65.2252   92.7434   10.8011 C.ar    1  UNL1        0.0546
     45 CL         64.5397   91.5739   10.1590 Cl      1  UNL1       -0.0825
@<TRIPOS>BOND
     1    27    28    1
     2    28    29    1
     3    28    26    1
     4    19    26    1
     5    19    20    1
     6    20    22    1
     7    22    23    1
     8    23    24    1
     9    19     9    1
    10     9    10   ar
    11    10    11   ar
    12    11    15    1
    13    15    16    1
    14    15    17    1
    15    15    18    1
    16    11    12   ar
    17    12    13   ar
    18    13    14   ar
    19    14     1    1
    20     1     2    1
    21     2     3    1
    22     3     4    1
    23     4     5   am
    24     5     6    2
    25     5    30    1
    26    30    37    1
    27    37    38    1
    28    38    39   ar
    29    39    40   ar
    30    40    41   ar
    31    41    42    1
    32    41    43   ar
    33    43    44   ar
    34    44    45    1
    35    30    31    1
    36    31    32    1
    37    32    33    1
    38    33    34    1
    39    34    35    1
    40    35    36    2
    41     4     7    1
    42     7     8    1
    43    14     9   ar
    44     8     1    1
    45    44    38   ar
    46    35    31   am
    47    20    21    1
    48    24    25    1
@<TRIPOS>MOLECULE
*****
 45 48 0 0 0
SMALL
GASTEIGER

@<TRIPOS>ATOM
      1 N          63.2106   86.6604   13.0108 N.pl3   1  UNL1       -0.3043
      2 C          62.4845   87.4838   11.9886 C.3     1  UNL1        0.1123
      3 C          62.8300   88.9324   11.8096 C.3     1  UNL1        0.1149
      4 N          63.9016   89.5577   12.6527 N.am    1  UNL1       -0.2747
      5 C          64.2470   91.0064   12.4736 C.2     1  UNL1        0.2442
      6 O          63.5210   91.8297   11.4514 O.2     1  UNL1       -0.2731
      7 C          64.6276   88.7344   13.6749 C.3     1  UNL1        0.1149
      8 C          64.2821   87.2857   13.8540 C.3     1  UNL1        0.1123
      9 C          62.4011   84.4008   12.0165 C.ar    1  UNL1        0.0053
     10 C          62.0556   82.9522   12.1956 C.ar    1  UNL1        0.0021
     11 C          62.1740   82.3145   13.5481 C.ar    1  UNL1        0.0712
     12 C          62.6380   83.1255   14.7216 C.ar    1  UNL1        0.0051
     13 C          62.9835   84.5741   14.5425 C.ar    1  UNL1        0.0142
     14 C          62.8650   85.2118   13.1899 C.ar    1  UNL1        0.0451
     15 C          61.8285   80.8659   13.7272 C.3     1  UNL1        0.4186
     16 F          61.4830   79.4173   13.9062 F       1  UNL1       -0.1659
     17 F          60.4975   81.2541   14.2994 F       1  UNL1       -0.1659
     18 F          63.1596   80.4776   13.1549 F       1  UNL1       -0.1659
     19 C          62.2827   85.0384   10.6639 C.3     1  UNL1        0.0780
     20 N          63.4347   84.9827    9.7050 N.3     1  UNL1       -0.2930
     21 H          64.2298   85.4163   10.1743 H       1  UNL1        0.1236
     22 C          63.9103   83.6604    9.1800 C.3     1  UNL1        0.1009
     23 C          64.3548   82.5910   10.1333 C.3     1  UNL1        0.1542
     24 O          65.2560   82.9371   11.2814 O.3     1  UNL1       -0.3805
     25 H          66.1191   83.2202   10.9411 H       1  UNL1        0.2105
     26 C          61.0122   85.7318   10.2703 C.3     1  UNL1        0.0203
     27 C          60.7616   87.9087    8.8743 C.3     1  UNL1        0.0001
     28 C          60.9132   86.4177    8.9400 C.3     1  UNL1        0.0017
     29 C          60.9659   85.6128    7.6754 C.3     1  UNL1        0.0001
     30 C          65.3186   91.6316   13.3167 C.3     1  UNL1        0.1564
     31 N          65.0813   91.8652   14.7793 N.am    1  UNL1       -0.2727
     32 C          63.9328   91.3309   15.5826 C.3     1  UNL1        0.0943
     33 C          64.0926   91.8096   16.9952 C.3     1  UNL1        0.0311
     34 C          65.3399   92.6399   17.0649 C.3     1  UNL1        0.0870
     35 C          65.9511   92.6743   15.6954 C.2     1  UNL1        0.2260
     36 O          67.2106   93.3916   15.3097 O.2     1  UNL1       -0.2749
     37 C          66.6274   92.0232   12.6973 C.3     1  UNL1        0.0564
     38 C          66.6959   93.2004   11.7702 C.ar    1  UNL1       -0.0094
     39 C          66.0835   94.5091   12.1732 C.ar    1  UNL1       -0.0025
     40 C          66.1520   95.6863   11.2461 C.ar    1  UNL1        0.0111
     41 C          66.8329   95.5548    9.9160 C.ar    1  UNL1        0.0585
     42 CL         66.9015   96.7320    8.9889 Cl      1  UNL1       -0.0822
     43 C          67.4453   94.2462    9.5130 C.ar    1  UNL1        0.0225
     44 C          67.3768   93.0690   10.4401 C.ar    1  UNL1        0.0546
     45 CL         67.9892   91.7604   10.0372 Cl      1  UNL1       -0.0825
@<TRIPOS>BOND
     1    27    28    1
     2    28    29    1
     3    28    26    1
     4    19    26    1
     5    19    20    1
     6    20    22    1
     7    22    23    1
     8    23    24    1
     9    19     9    1
    10     9    10   ar
    11    10    11   ar
    12    11    15    1
    13    15    16    1
    14    15    17    1
    15    15    18    1
    16    11    12   ar
    17    12    13   ar
    18    13    14   ar
    19    14     1    1
    20     1     2    1
    21     2     3    1
    22     3     4    1
    23     4     5   am
    24     5     6    2
    25     5    30    1
    26    30    37    1
    27    37    38    1
    28    38    39   ar
    29    39    40   ar
    30    40    41   ar
    31    41    42    1
    32    41    43   ar
    33    43    44   ar
    34    44    45    1
    35    30    31    1
    36    31    32    1
    37    32    33    1
    38    33    34    1
    39    34    35    1
    40    35    36    2
    41     4     7    1
    42     7     8    1
    43    14     9   ar
    44     8     1    1
    45    44    38   ar
    46    35    31   am
    47    20    21    1
    48    24    25    1
@<TRIPOS>MOLECULE
*****
 45 48 0 0 0
SMALL
GASTEIGER

@<TRIPOS>ATOM
      1 N          63.3871   87.1279   12.8330 N.pl3   1  UNL1       -0.3043
      2 C          62.7261   87.9666   11.7797 C.3     1  UNL1        0.1123
      3 C          63.0724   89.4205   11.6520 C.3     1  UNL1        0.1149
      4 N          64.0797   90.0357   12.5777 N.am    1  UNL1       -0.2747
      5 C          64.4260   91.4895   12.4500 C.2     1  UNL1        0.2442
      6 O          63.7650   92.3282   11.3967 O.2     1  UNL1       -0.2731
      7 C          64.7407   89.1969   13.6311 C.3     1  UNL1        0.1149
      8 C          64.3943   87.7430   13.7588 C.3     1  UNL1        0.1123
      9 C          62.2742   84.9870   11.8696 C.ar    1  UNL1        0.0053
     10 C          61.9279   83.5331   11.9973 C.ar    1  UNL1        0.0021
     11 C          62.3481   82.7663   13.2160 C.ar    1  UNL1        0.0712
     12 C          63.1146   83.4532   14.3071 C.ar    1  UNL1        0.0051
     13 C          63.4609   84.9071   14.1794 C.ar    1  UNL1        0.0142
     14 C          63.0407   85.6740   12.9607 C.ar    1  UNL1        0.0451
     15 C          62.0017   81.3123   13.3437 C.3     1  UNL1        0.4186
     16 F          61.6554   79.8585   13.4714 F       1  UNL1       -0.1659
     17 F          61.3238   81.5888   14.6528 F       1  UNL1       -0.1659
     18 F          62.6797   81.0358   12.0346 F       1  UNL1       -0.1659
     19 C          61.8540   85.7538   10.6508 C.3     1  UNL1        0.0780
     20 N          60.4863   86.3659   10.5845 N.3     1  UNL1       -0.2930
     21 H          60.3788   86.9381   11.4220 H       1  UNL1        0.1236
     22 C          60.1069   87.2298    9.4183 C.3     1  UNL1        0.1009
     23 C          59.6499   86.6001    8.1358 C.3     1  UNL1        0.1542
     24 O          58.1927   86.5961    7.7799 O.3     1  UNL1       -0.3805
     25 H          57.7067   86.0454    8.4134 H       1  UNL1        0.2105
     26 C          62.8017   85.9086    9.4985 C.3     1  UNL1        0.0203
     27 C          63.9770   83.5996    9.3047 C.3     1  UNL1        0.0001
     28 C          63.1889   84.7126    8.6800 C.3     1  UNL1        0.0017
     29 C          62.7880   84.6297    7.2370 C.3     1  UNL1        0.0001
     30 C          65.4333   92.1046   13.3758 C.3     1  UNL1        0.1564
     31 N          65.1689   92.1453   14.8517 N.am    1  UNL1       -0.2727
     32 C          63.9456   91.6204   15.5431 C.3     1  UNL1        0.0943
     33 C          64.1020   91.8687   17.0141 C.3     1  UNL1        0.0311
     34 C          65.4220   92.5471   17.2319 C.3     1  UNL1        0.0870
     35 C          66.0814   92.7181   15.8955 C.2     1  UNL1        0.2260
     36 O          67.4184   93.3506   15.6465 O.2     1  UNL1       -0.2749
     37 C          66.7051   92.6791   12.8255 C.3     1  UNL1        0.0564
     38 C          66.6567   93.6522   11.6851 C.ar    1  UNL1       -0.0094
     39 C          66.0613   95.0143   11.8861 C.ar    1  UNL1       -0.0025
     40 C          66.0129   95.9874   10.7457 C.ar    1  UNL1        0.0111
     41 C          66.5599   95.5985    9.4042 C.ar    1  UNL1        0.0585
     42 CL         66.5115   96.5716    8.2637 Cl      1  UNL1       -0.0822
     43 C          67.1552   94.2365    9.2031 C.ar    1  UNL1        0.0225
     44 C          67.2036   93.2633   10.3436 C.ar    1  UNL1        0.0546
     45 CL         67.7989   91.9013   10.1426 Cl      1  UNL1       -0.0825
@<TRIPOS>BOND
     1    27    28    1
     2    28    29    1
     3    28    26    1
     4    19    26    1
     5    19    20    1
     6    20    22    1
     7    22    23    1
     8    23    24    1
     9    19     9    1
    10     9    10   ar
    11    10    11   ar
    12    11    15    1
    13    15    16    1
    14    15    17    1
    15    15    18    1
    16    11    12   ar
    17    12    13   ar
    18    13    14   ar
    19    14     1    1
    20     1     2    1
    21     2     3    1
    22     3     4    1
    23     4     5   am
    24     5     6    2
    25     5    30    1
    26    30    37    1
    27    37    38    1
    28    38    39   ar
    29    39    40   ar
    30    40    41   ar
    31    41    42    1
    32    41    43   ar
    33    43    44   ar
    34    44    45    1
    35    30    31    1
    36    31    32    1
    37    32    33    1
    38    33    34    1
    39    34    35    1
    40    35    36    2
    41     4     7    1
    42     7     8    1
    43    14     9   ar
    44     8     1    1
    45    44    38   ar
    46    35    31   am
    47    20    21    1
    48    24    25    1
@<TRIPOS>MOLECULE
*****
 45 48 0 0 0
SMALL
GASTEIGER

@<TRIPOS>ATOM
      1 N          57.7956   92.9043   -2.1975 N.pl3   1  UNL1       -0.3043
      2 C          57.2568   94.0367   -1.3746 C.3     1  UNL1        0.1123
      3 C          58.1482   94.7440   -0.3973 C.3     1  UNL1        0.1149
      4 N          59.5784   94.3189   -0.2430 N.am    1  UNL1       -0.2747
      5 C          60.4698   95.0262    0.7343 C.2     1  UNL1        0.2442
      6 O          59.9311   96.1587    1.5573 O.2     1  UNL1       -0.2731
      7 C          60.1172   93.1864   -1.0659 C.3     1  UNL1        0.1149
      8 C          59.2257   92.4791   -2.0432 C.3     1  UNL1        0.1123
      9 C          56.7705   92.7123   -4.5771 C.ar    1  UNL1        0.0053
     10 C          55.8791   92.0050   -5.5544 C.ar    1  UNL1        0.0021
     11 C          55.1212   90.7823   -5.1293 C.ar    1  UNL1        0.0712
     12 C          55.2548   90.2670   -3.7269 C.ar    1  UNL1        0.0051
     13 C          56.1462   90.9743   -2.7497 C.ar    1  UNL1        0.0142
     14 C          56.9041   92.1969   -3.1748 C.ar    1  UNL1        0.0451
     15 C          54.2297   90.0750   -6.1066 C.3     1  UNL1        0.4186
     16 F          53.3383   89.3677   -7.0838 F       1  UNL1       -0.1659
     17 F          53.7361   89.1802   -5.0086 F       1  UNL1       -0.1659
     18 F          54.7234   90.9698   -7.2045 F       1  UNL1       -0.1659
     19 C          57.5284   93.9350   -5.0022 C.3     1  UNL1        0.0780
     20 N          56.7959   95.2165   -5.2688 N.3     1  UNL1       -0.2930
     21 H          56.0963   95.0128   -5.9826 H       1  UNL1        0.1236
     22 C          56.0829   95.9191   -4.1517 C.3     1  UNL1        0.1009
     23 C          54.6516   95.5871   -3.8494 C.3     1  UNL1        0.1542
     24 O          54.1892   95.4884   -2.4258 O.3     1  UNL1       -0.3805
     25 H          54.6247   94.7359   -1.9958 H       1  UNL1        0.2105
     26 C          59.0188   93.8761   -5.1608 C.3     1  UNL1        0.0203
     27 C          59.8981   95.7791   -3.6259 C.3     1  UNL1        0.0001
     28 C          59.8429   95.1148   -4.9697 C.3     1  UNL1        0.0017
     29 C          60.6117   95.6893   -6.1224 C.3     1  UNL1        0.0001
     30 C          61.9000   94.6011    0.8886 C.3     1  UNL1        0.1564
     31 N          62.2404   93.4037    1.7256 N.am    1  UNL1       -0.2727
     32 C          61.3057   92.6775    2.6469 C.3     1  UNL1        0.0943
     33 C          62.0628   91.5473    3.2789 C.3     1  UNL1        0.0311
     34 C          63.4655   91.5750    2.7481 C.3     1  UNL1        0.0870
     35 C          63.5753   92.7224    1.7881 C.2     1  UNL1        0.2260
     36 O          64.8041   93.1187    1.0247 O.2     1  UNL1       -0.2749
     37 C          62.9898   95.3733    0.2059 C.3     1  UNL1        0.0564
     38 C          63.4063   95.0097   -1.1885 C.ar    1  UNL1       -0.0094
     39 C          62.7001   93.9057   -1.9183 C.ar    1  UNL1       -0.0025
     40 C          63.1165   93.5421   -3.3127 C.ar    1  UNL1        0.0111
     41 C          64.2391   94.2825   -3.9773 C.ar    1  UNL1        0.0585
     42 CL         64.6555   93.9189   -5.3717 Cl      1  UNL1       -0.0822
     43 C          64.9452   95.3865   -3.2475 C.ar    1  UNL1        0.0225
     44 C          64.5288   95.7501   -1.8531 C.ar    1  UNL1        0.0546
     45 CL         65.2349   96.8540   -1.1233 Cl      1  UNL1       -0.0825
@<TRIPOS>BOND
     1    27    28    1
     2    28    29    1
     3    28    26    1
     4    19    26    1
     5    19    20    1
     6    20    22    1
     7    22    23    1
     8    23    24    1
     9    19     9    1
    10     9    10   ar
    11    10    11   ar
    12    11    15    1
    13    15    16    1
    14    15    17    1
    15    15    18    1
    16    11    12   ar
    17    12    13   ar
    18    13    14   ar
    19    14     1    1
    20     1     2    1
    21     2     3    1
    22     3     4    1
    23     4     5   am
    24     5     6    2
    25     5    30    1
    26    30    37    1
    27    37    38    1
    28    38    39   ar
    29    39    40   ar
    30    40    41   ar
    31    41    42    1
    32    41    43   ar
    33    43    44   ar
    34    44    45    1
    35    30    31    1
    36    31    32    1
    37    32    33    1
    38    33    34    1
    39    34    35    1
    40    35    36    2
    41     4     7    1
    42     7     8    1
    43    14     9   ar
    44     8     1    1
    45    44    38   ar
    46    35    31   am
    47    20    21    1
    48    24    25    1
