@<TRIPOS>MOLECULE
*****
 39 42 0 0 0
SMALL
GASTEIGER

@<TRIPOS>ATOM
      1 C          63.4490   90.1933   12.6152 C.ar    1  UNL1        0.2295
      2 N          63.6759   88.7690   12.2031 N.ar    1  UNL1       -0.2039
      3 C          62.4090   88.2584   11.5831 C.ar    1  UNL1        0.1690
      4 C          61.3992   89.3671   11.6121 C.ar    1  UNL1        0.1605
      5 O          62.0419   90.5630   12.2499 O.2     1  UNL1       -0.4374
      6 C          66.4608   92.8847   14.5990 C.ar    1  UNL1        0.1562
      7 C          65.7963   91.7943   15.3860 C.ar    1  UNL1        0.0386
      8 C          64.7924   90.8971   14.7247 C.ar    1  UNL1        0.0079
      9 C          64.4530   91.0905   13.2765 C.ar    1  UNL1        0.0552
     10 C          65.1175   92.1809   12.4894 C.ar    1  UNL1        0.0252
     11 C          64.7780   92.3743   11.0412 C.ar    1  UNL1        0.0032
     12 C          65.4425   93.4647   10.2543 C.ar    1  UNL1        0.0231
     13 C          66.4465   94.3618   10.9156 C.ar    1  UNL1        0.1527
     14 N          66.7859   94.1685   12.3638 N.ar    1  UNL1       -0.2383
     15 C          66.1214   93.0781   13.1507 C.ar    1  UNL1        0.1151
     16 C          67.1110   95.4523   10.1285 C.3     1  UNL1        0.4348
     17 F          67.7755   96.5427    9.3415 F       1  UNL1       -0.1644
     18 F          66.5114   96.4783   11.0438 F       1  UNL1       -0.1644
     19 F          67.7106   94.4263    9.2133 F       1  UNL1       -0.1644
     20 C          68.7754   93.2233   15.7296 C.3     1  UNL1        0.2525
     21 O          67.4648   93.7818   15.2603 O.3     1  UNL1       -0.4699
     22 C          59.9934   89.2931   11.0941 C.3     1  UNL1        0.1109
     23 C          58.8402   89.2847   12.0533 C.3     1  UNL1        0.0251
     24 N          59.7409   89.2274    9.6170 N.3     1  UNL1       -0.3162
     25 H          60.6309   89.2430    9.1189 H       1  UNL1        0.1192
     26 H          59.1779   90.0289    9.3323 H       1  UNL1        0.1192
     27 C          62.1904   86.8809   11.0311 C.2     1  UNL1        0.2667
     28 O          61.1959   86.6634    9.9295 O.2     1  UNL1       -0.2684
     29 N          62.9664   85.7209   11.5808 N.am    1  UNL1       -0.2955
     30 H          63.6192   85.8636   12.3038 H       1  UNL1        0.1501
     31 C          62.7479   84.3434   11.0288 C.3     1  UNL1        0.1189
     32 C          62.7097   83.1624   11.9529 C.ar    1  UNL1        0.0251
     33 C          62.3815   83.3557   13.4037 C.ar    1  UNL1        0.0019
     34 C          62.3434   82.1747   14.3279 C.ar    1  UNL1        0.0295
     35 C          62.6334   80.8006   13.8011 C.ar    1  UNL1        0.1424
     36 F          62.5952   79.6197   14.7252 F       1  UNL1       -0.2041
     37 C          62.9615   80.6073   12.3503 C.ar    1  UNL1        0.0590
     38 C          62.9997   81.7882   11.4262 C.ar    1  UNL1        0.1400
     39 F          63.3279   81.5949    9.9754 F       1  UNL1       -0.2044
@<TRIPOS>BOND
     1    20    21    1
     2    21     6    1
     3     6     7   ar
     4     7     8   ar
     5     8     9   ar
     6     9     1    1
     7     1     2   ar
     8     2     3   ar
     9     3    27    1
    10    27    28    2
    11    27    29   am
    12    29    31    1
    13    31    32    1
    14    32    33   ar
    15    33    34   ar
    16    34    35   ar
    17    35    36    1
    18    35    37   ar
    19    37    38   ar
    20    38    39    1
    21     3     4   ar
    22     4    22    1
    23    22    23    1
    24    22    24    1
    25     4     5   ar
    26     9    10   ar
    27    10    11   ar
    28    11    12   ar
    29    12    13   ar
    30    13    16    1
    31    16    17    1
    32    16    18    1
    33    16    19    1
    34    13    14   ar
    35    14    15   ar
    36    15     6   ar
    37     5     1   ar
    38    15    10   ar
    39    38    32   ar
    40    29    30    1
    41    24    25    1
    42    24    26    1
@<TRIPOS>MOLECULE
*****
 39 42 0 0 0
SMALL
GASTEIGER

@<TRIPOS>ATOM
      1 C          64.0822   89.9843   12.7448 C.ar    1  UNL1        0.2295
      2 N          63.8596   88.6137   13.3121 N.ar    1  UNL1       -0.2039
      3 C          62.9328   87.8759   12.3919 C.ar    1  UNL1        0.1690
      4 C          62.5826   88.7906   11.2557 C.ar    1  UNL1        0.1605
      5 O          63.2930   90.0936   11.4739 O.2     1  UNL1       -0.4374
      6 C          66.6642   93.2030   14.5401 C.ar    1  UNL1        0.1562
      7 C          66.1835   92.0653   15.3912 C.ar    1  UNL1        0.0386
      8 C          65.3228   90.9924   14.7928 C.ar    1  UNL1        0.0079
      9 C          64.9428   91.0572   13.3432 C.ar    1  UNL1        0.0552
     10 C          65.4235   92.1950   12.4920 C.ar    1  UNL1        0.0252
     11 C          65.0435   92.2598   11.0424 C.ar    1  UNL1        0.0032
     12 C          65.5241   93.3976   10.1913 C.ar    1  UNL1        0.0231
     13 C          66.3848   94.4705   10.7897 C.ar    1  UNL1        0.1527
     14 N          66.7648   94.4056   12.2393 N.ar    1  UNL1       -0.2383
     15 C          66.2842   93.2679   13.0904 C.ar    1  UNL1        0.1151
     16 C          66.8654   95.6083    9.9385 C.3     1  UNL1        0.4348
     17 F          67.3460   96.7460    9.0874 F       1  UNL1       -0.1644
     18 F          68.0814   94.8141    9.5635 F       1  UNL1       -0.1644
     19 F          65.6495   96.4024   10.3135 F       1  UNL1       -0.1644
     20 C          68.7422   93.9050   15.9325 C.3     1  UNL1        0.2525
     21 O          67.5248   94.2759   15.1386 O.3     1  UNL1       -0.4699
     22 C          61.6805   88.4602   10.1038 C.3     1  UNL1        0.1109
     23 C          60.4539   89.2856    9.8511 C.3     1  UNL1        0.0251
     24 N          62.0052   87.3044    9.2045 N.3     1  UNL1       -0.3162
     25 H          62.8667   86.8592    9.5207 H       1  UNL1        0.1192
     26 H          62.1269   87.6405    8.2492 H       1  UNL1        0.1192
     27 C          62.4424   86.4703   12.5755 C.2     1  UNL1        0.2667
     28 O          61.2778   85.9713   11.7725 O.2     1  UNL1       -0.2684
     29 N          63.1165   85.5637   13.5622 N.am    1  UNL1       -0.2955
     30 H          63.8809   85.8912   14.0893 H       1  UNL1        0.1501
     31 C          62.6261   84.1581   13.7459 C.3     1  UNL1        0.1189
     32 C          62.8716   83.1326   12.6789 C.ar    1  UNL1        0.0251
     33 C          63.6856   83.4882   11.4702 C.ar    1  UNL1        0.0019
     34 C          63.9311   82.4627   10.4033 C.ar    1  UNL1        0.0295
     35 C          63.3625   81.0819   10.5452 C.ar    1  UNL1        0.1424
     36 F          63.6080   80.0565    9.4783 F       1  UNL1       -0.2041
     37 C          62.5486   80.7265   11.7538 C.ar    1  UNL1        0.0590
     38 C          62.3031   81.7519   12.8207 C.ar    1  UNL1        0.1400
     39 F          61.4891   81.3965   14.0295 F       1  UNL1       -0.2044
@<TRIPOS>BOND
     1    20    21    1
     2    21     6    1
     3     6     7   ar
     4     7     8   ar
     5     8     9   ar
     6     9     1    1
     7     1     2   ar
     8     2     3   ar
     9     3    27    1
    10    27    28    2
    11    27    29   am
    12    29    31    1
    13    31    32    1
    14    32    33   ar
    15    33    34   ar
    16    34    35   ar
    17    35    36    1
    18    35    37   ar
    19    37    38   ar
    20    38    39    1
    21     3     4   ar
    22     4    22    1
    23    22    23    1
    24    22    24    1
    25     4     5   ar
    26     9    10   ar
    27    10    11   ar
    28    11    12   ar
    29    12    13   ar
    30    13    16    1
    31    16    17    1
    32    16    18    1
    33    16    19    1
    34    13    14   ar
    35    14    15   ar
    36    15     6   ar
    37     5     1   ar
    38    15    10   ar
    39    38    32   ar
    40    29    30    1
    41    24    25    1
    42    24    26    1
@<TRIPOS>MOLECULE
*****
 39 42 0 0 0
SMALL
GASTEIGER

@<TRIPOS>ATOM
      1 C          62.8639   89.1679   11.9787 C.ar    1  UNL1        0.2295
      2 N          61.8113   89.5906   10.9973 N.ar    1  UNL1       -0.2039
      3 C          61.3850   88.3782   10.2237 C.ar    1  UNL1        0.1690
      4 C          62.1742   87.2062   10.7270 C.ar    1  UNL1        0.1605
      5 O          63.0882   87.6942   11.8116 O.2     1  UNL1       -0.4374
      6 C          64.9779   91.8497   14.9094 C.ar    1  UNL1        0.1562
      7 C          64.2388   90.6395   15.3983 C.ar    1  UNL1        0.0386
      8 C          63.5341   89.7456   14.4214 C.ar    1  UNL1        0.0079
      9 C          63.5686   90.0618   12.9556 C.ar    1  UNL1        0.0552
     10 C          64.3077   91.2721   12.4666 C.ar    1  UNL1        0.0252
     11 C          64.3421   91.5883   11.0007 C.ar    1  UNL1        0.0032
     12 C          65.0812   92.7985   10.5118 C.ar    1  UNL1        0.0231
     13 C          65.7859   93.6925   11.4887 C.ar    1  UNL1        0.1527
     14 N          65.7514   93.3762   12.9545 N.ar    1  UNL1       -0.2383
     15 C          65.0123   92.1660   13.4435 C.ar    1  UNL1        0.1151
     16 C          66.5250   94.9027   10.9997 C.3     1  UNL1        0.4348
     17 F          67.2641   96.1129   10.5106 F       1  UNL1       -0.1644
     18 F          66.1401   95.6418   12.2469 F       1  UNL1       -0.1644
     19 F          66.9098   94.1637    9.7524 F       1  UNL1       -0.1644
     20 C          67.1635   92.6157   16.0867 C.3     1  UNL1        0.2525
     21 O          65.6825   92.7437   15.8863 O.3     1  UNL1       -0.4699
     22 C          62.0681   85.7940   10.2325 C.3     1  UNL1        0.1109
     23 C          62.1826   84.6510   11.1970 C.3     1  UNL1        0.0251
     24 N          61.8473   85.5250    8.7734 N.3     1  UNL1       -0.3162
     25 H          61.7942   86.4098    8.2688 H       1  UNL1        0.1192
     26 H          60.9751   85.0106    8.6507 H       1  UNL1        0.1192
     27 C          60.3510   88.3440    9.1376 C.2     1  UNL1        0.2667
     28 O          59.3650   87.2152    9.0760 O.2     1  UNL1       -0.2684
     29 N          60.3030   89.4385    8.1130 N.am    1  UNL1       -0.2955
     30 H          60.9502   90.1793    8.1534 H       1  UNL1        0.1501
     31 C          59.2691   89.4043    7.0269 C.3     1  UNL1        0.1189
     32 C          59.3411   90.3822    5.8917 C.ar    1  UNL1        0.0251
     33 C          60.6729   90.7798    5.3278 C.ar    1  UNL1        0.0019
     34 C          60.7449   91.7578    4.1926 C.ar    1  UNL1        0.0295
     35 C          59.4851   92.3380    3.6214 C.ar    1  UNL1        0.1424
     36 F          59.5571   93.3159    2.4863 F       1  UNL1       -0.2041
     37 C          58.1534   91.9403    4.1854 C.ar    1  UNL1        0.0590
     38 C          58.0813   90.9624    5.3205 C.ar    1  UNL1        0.1400
     39 F          56.7495   90.5647    5.8845 F       1  UNL1       -0.2044
@<TRIPOS>BOND
     1    20    21    1
     2    21     6    1
     3     6     7   ar
     4     7     8   ar
     5     8     9   ar
     6     9     1    1
     7     1     2   ar
     8     2     3   ar
     9     3    27    1
    10    27    28    2
    11    27    29   am
    12    29    31    1
    13    31    32    1
    14    32    33   ar
    15    33    34   ar
    16    34    35   ar
    17    35    36    1
    18    35    37   ar
    19    37    38   ar
    20    38    39    1
    21     3     4   ar
    22     4    22    1
    23    22    23    1
    24    22    24    1
    25     4     5   ar
    26     9    10   ar
    27    10    11   ar
    28    11    12   ar
    29    12    13   ar
    30    13    16    1
    31    16    17    1
    32    16    18    1
    33    16    19    1
    34    13    14   ar
    35    14    15   ar
    36    15     6   ar
    37     5     1   ar
    38    15    10   ar
    39    38    32   ar
    40    29    30    1
    41    24    25    1
    42    24    26    1
@<TRIPOS>MOLECULE
*****
 39 42 0 0 0
SMALL
GASTEIGER

@<TRIPOS>ATOM
      1 C          63.4688   90.4264   11.5548 C.ar    1  UNL1        0.2295
      2 N          63.8595   89.0916   12.1165 N.ar    1  UNL1       -0.2039
      3 C          62.6576   88.1959   12.0619 C.ar    1  UNL1        0.1690
      4 C          61.5240   88.9771   11.4664 C.ar    1  UNL1        0.1605
      5 O          62.0254   90.3556   11.1530 O.2     1  UNL1       -0.4374
      6 C          66.1552   94.0134   11.1467 C.ar    1  UNL1        0.1562
      7 C          65.1640   93.6921   10.0677 C.ar    1  UNL1        0.0386
      8 C          64.2686   92.4964   10.2037 C.ar    1  UNL1        0.0079
      9 C          64.3643   91.6221   11.4187 C.ar    1  UNL1        0.0552
     10 C          65.3555   91.9434   12.4978 C.ar    1  UNL1        0.0252
     11 C          65.4512   91.0690   13.7128 C.ar    1  UNL1        0.0032
     12 C          66.4424   91.3904   14.7918 C.ar    1  UNL1        0.0231
     13 C          67.3379   92.5860   14.6558 C.ar    1  UNL1        0.1527
     14 N          67.2422   93.4604   13.4408 N.ar    1  UNL1       -0.2383
     15 C          66.2510   93.1391   12.3618 C.ar    1  UNL1        0.1151
     16 C          68.3291   92.9073   15.7348 C.3     1  UNL1        0.4348
     17 F          69.3203   93.2286   16.8139 F       1  UNL1       -0.1644
     18 F          69.4000   93.0821   14.6992 F       1  UNL1       -0.1644
     19 F          67.2583   92.7325   16.7705 F       1  UNL1       -0.1644
     20 C          67.2456   95.8514    9.6693 C.3     1  UNL1        0.2525
     21 O          67.0507   95.2091   11.0106 O.3     1  UNL1       -0.4699
     22 C          60.1332   88.4690   11.2263 C.3     1  UNL1        0.1109
     23 C          59.7720   87.8707    9.8992 C.3     1  UNL1        0.0251
     24 N          59.1038   88.5594   12.3136 N.3     1  UNL1       -0.3162
     25 H          59.5190   88.9894   13.1401 H       1  UNL1        0.1192
     26 H          58.7730   87.6232   12.5473 H       1  UNL1        0.1192
     27 C          62.5994   86.7694   12.5220 C.2     1  UNL1        0.2667
     28 O          61.5810   85.8344   11.9400 O.2     1  UNL1       -0.2684
     29 N          63.5597   86.2778   13.5642 N.am    1  UNL1       -0.2955
     30 H          64.2281   86.8914   13.9462 H       1  UNL1        0.1501
     31 C          63.5016   84.8513   14.0243 C.3     1  UNL1        0.1189
     32 C          63.4095   83.7420   13.0187 C.ar    1  UNL1        0.0251
     33 C          64.2517   83.7827   11.7781 C.ar    1  UNL1        0.0019
     34 C          64.1597   82.6734   10.7725 C.ar    1  UNL1        0.0295
     35 C          63.2255   81.5236   11.0076 C.ar    1  UNL1        0.1424
     36 F          63.1335   80.4144   10.0021 F       1  UNL1       -0.2041
     37 C          62.3834   81.4830   12.2482 C.ar    1  UNL1        0.0590
     38 C          62.4754   82.5922   13.2537 C.ar    1  UNL1        0.1400
     39 F          61.6333   82.5516   14.4944 F       1  UNL1       -0.2044
@<TRIPOS>BOND
     1    20    21    1
     2    21     6    1
     3     6     7   ar
     4     7     8   ar
     5     8     9   ar
     6     9     1    1
     7     1     2   ar
     8     2     3   ar
     9     3    27    1
    10    27    28    2
    11    27    29   am
    12    29    31    1
    13    31    32    1
    14    32    33   ar
    15    33    34   ar
    16    34    35   ar
    17    35    36    1
    18    35    37   ar
    19    37    38   ar
    20    38    39    1
    21     3     4   ar
    22     4    22    1
    23    22    23    1
    24    22    24    1
    25     4     5   ar
    26     9    10   ar
    27    10    11   ar
    28    11    12   ar
    29    12    13   ar
    30    13    16    1
    31    16    17    1
    32    16    18    1
    33    16    19    1
    34    13    14   ar
    35    14    15   ar
    36    15     6   ar
    37     5     1   ar
    38    15    10   ar
    39    38    32   ar
    40    29    30    1
    41    24    25    1
    42    24    26    1
@<TRIPOS>MOLECULE
*****
 39 42 0 0 0
SMALL
GASTEIGER

@<TRIPOS>ATOM
      1 C          64.0509   89.0647   14.1971 C.ar    1  UNL1        0.2295
      2 N          64.3104   87.6476   13.7795 N.ar    1  UNL1       -0.2039
      3 C          63.7467   86.7428   14.8348 C.ar    1  UNL1        0.1690
      4 C          63.1388   87.6007   15.9046 C.ar    1  UNL1        0.1605
      5 O          63.3268   89.0357   15.5104 O.2     1  UNL1       -0.4374
      6 C          65.2364   92.7551   11.9112 C.ar    1  UNL1        0.1562
      7 C          64.0783   91.9237   11.4448 C.ar    1  UNL1        0.0386
      8 C          63.6831   90.6936   12.2067 C.ar    1  UNL1        0.0079
      9 C          64.4460   90.2949   13.4351 C.ar    1  UNL1        0.0552
     10 C          65.6042   91.1263   13.9016 C.ar    1  UNL1        0.0252
     11 C          66.3671   90.7276   15.1300 C.ar    1  UNL1        0.0032
     12 C          67.5251   91.5590   15.5964 C.ar    1  UNL1        0.0231
     13 C          67.9203   92.7891   14.8344 C.ar    1  UNL1        0.1527
     14 N          67.1574   93.1878   13.6060 N.ar    1  UNL1       -0.2383
     15 C          65.9994   92.3564   13.1396 C.ar    1  UNL1        0.1151
     16 C          69.0785   93.6206   15.3008 C.3     1  UNL1        0.4348
     17 F          70.2365   94.4520   15.7673 F       1  UNL1       -0.1644
     18 F          70.0173   92.7532   14.5159 F       1  UNL1       -0.1644
     19 F          68.1396   94.4879   16.0858 F       1  UNL1       -0.1644
     20 C          66.6823   93.9012   10.0820 C.3     1  UNL1        0.2525
     21 O          65.6316   93.9853   11.1492 O.3     1  UNL1       -0.4699
     22 C          62.4618   87.1098   17.1498 C.3     1  UNL1        0.1109
     23 C          63.0004   87.4918   18.4966 C.3     1  UNL1        0.0251
     24 N          61.2462   86.2369   17.0481 N.3     1  UNL1       -0.3162
     25 H          61.0220   86.0793   16.0656 H       1  UNL1        0.1192
     26 H          60.4591   86.6952   17.5073 H       1  UNL1        0.1192
     27 C          63.7843   85.2433   14.8224 C.2     1  UNL1        0.2667
     28 O          65.1012   84.5258   14.8531 O.2     1  UNL1       -0.2684
     29 N          62.5050   84.4613   14.7793 N.am    1  UNL1       -0.2955
     30 H          61.6407   84.9323   14.7592 H       1  UNL1        0.1501
     31 C          62.5426   82.9619   14.7669 C.3     1  UNL1        0.1189
     32 C          62.7121   82.2265   13.4705 C.ar    1  UNL1        0.0251
     33 C          63.2812   82.9335   12.2762 C.ar    1  UNL1        0.0019
     34 C          63.4508   82.1982   10.9798 C.ar    1  UNL1        0.0295
     35 C          63.0512   80.7560   10.8777 C.ar    1  UNL1        0.1424
     36 F          63.2207   80.0207    9.5814 F       1  UNL1       -0.2041
     37 C          62.4821   80.0491   12.0720 C.ar    1  UNL1        0.0590
     38 C          62.3126   80.7844   13.3684 C.ar    1  UNL1        0.1400
     39 F          61.7435   80.0775   14.5627 F       1  UNL1       -0.2044
@<TRIPOS>BOND
     1    20    21    1
     2    21     6    1
     3     6     7   ar
     4     7     8   ar
     5     8     9   ar
     6     9     1    1
     7     1     2   ar
     8     2     3   ar
     9     3    27    1
    10    27    28    2
    11    27    29   am
    12    29    31    1
    13    31    32    1
    14    32    33   ar
    15    33    34   ar
    16    34    35   ar
    17    35    36    1
    18    35    37   ar
    19    37    38   ar
    20    38    39    1
    21     3     4   ar
    22     4    22    1
    23    22    23    1
    24    22    24    1
    25     4     5   ar
    26     9    10   ar
    27    10    11   ar
    28    11    12   ar
    29    12    13   ar
    30    13    16    1
    31    16    17    1
    32    16    18    1
    33    16    19    1
    34    13    14   ar
    35    14    15   ar
    36    15     6   ar
    37     5     1   ar
    38    15    10   ar
    39    38    32   ar
    40    29    30    1
    41    24    25    1
    42    24    26    1
@<TRIPOS>MOLECULE
*****
 39 42 0 0 0
SMALL
GASTEIGER

@<TRIPOS>ATOM
      1 C          64.3186   89.4794   13.5393 C.ar    1  UNL1        0.2295
      2 N          65.0287   90.4678   12.6623 N.ar    1  UNL1       -0.2039
      3 C          65.4502   91.6265   13.5166 C.ar    1  UNL1        0.1690
      4 C          65.0006   91.3543   14.9215 C.ar    1  UNL1        0.1605
      5 O          64.3013   90.0273   14.9355 O.2     1  UNL1       -0.4374
      6 C          62.5509   85.5591   12.2140 C.ar    1  UNL1        0.1562
      7 C          63.4809   85.6031   13.3900 C.ar    1  UNL1        0.0386
      8 C          64.0702   86.9099   13.8317 C.ar    1  UNL1        0.0079
      9 C          63.7294   88.1727   13.0975 C.ar    1  UNL1        0.0552
     10 C          62.7993   88.1287   11.9215 C.ar    1  UNL1        0.0252
     11 C          62.4584   89.3915   11.1872 C.ar    1  UNL1        0.0032
     12 C          61.5284   89.3476   10.0113 C.ar    1  UNL1        0.0231
     13 C          60.9391   88.0408    9.5695 C.ar    1  UNL1        0.1527
     14 N          61.2799   86.7780   10.3037 N.ar    1  UNL1       -0.2383
     15 C          62.2100   86.8220   11.4797 C.ar    1  UNL1        0.1151
     16 C          60.0090   87.9969    8.3935 C.3     1  UNL1        0.4348
     17 F          59.0789   87.9530    7.2175 F       1  UNL1       -0.1644
     18 F          60.2187   86.5158    8.2828 F       1  UNL1       -0.1644
     19 F          59.7992   89.4780    8.5041 F       1  UNL1       -0.1644
     20 C          62.7375   82.9812   11.9509 C.3     1  UNL1        0.2525
     21 O          61.9616   84.2524   11.7723 O.3     1  UNL1       -0.4699
     22 C          65.2131   92.2514   16.1047 C.3     1  UNL1        0.1109
     23 C          66.5993   92.6882   16.4754 C.3     1  UNL1        0.0251
     24 N          64.0392   92.7117   16.9172 N.3     1  UNL1       -0.3162
     25 H          63.1814   92.3222   16.5261 H       1  UNL1        0.1192
     26 H          63.9902   93.7303   16.8970 H       1  UNL1        0.1192
     27 C          66.1912   92.8436   13.0482 C.2     1  UNL1        0.2667
     28 O          67.6233   93.0486   13.4444 O.2     1  UNL1       -0.2684
     29 N          65.5000   93.8558   12.1835 N.am    1  UNL1       -0.2955
     30 H          64.5601   93.7213   11.9234 H       1  UNL1        0.1501
     31 C          66.2410   95.0730   11.7150 C.3     1  UNL1        0.1189
     32 C          66.1247   95.5187   10.2874 C.ar    1  UNL1        0.0251
     33 C          64.9928   96.4101    9.8700 C.ar    1  UNL1        0.0019
     34 C          64.8765   96.8558    8.4424 C.ar    1  UNL1        0.0295
     35 C          65.8920   96.4101    7.4324 C.ar    1  UNL1        0.1424
     36 F          65.7757   96.8558    6.0049 F       1  UNL1       -0.2041
     37 C          67.0238   95.5188    7.8499 C.ar    1  UNL1        0.0590
     38 C          67.1402   95.0731    9.2775 C.ar    1  UNL1        0.1400
     39 F          68.2720   94.1817    9.6950 F       1  UNL1       -0.2044
@<TRIPOS>BOND
     1    20    21    1
     2    21     6    1
     3     6     7   ar
     4     7     8   ar
     5     8     9   ar
     6     9     1    1
     7     1     2   ar
     8     2     3   ar
     9     3    27    1
    10    27    28    2
    11    27    29   am
    12    29    31    1
    13    31    32    1
    14    32    33   ar
    15    33    34   ar
    16    34    35   ar
    17    35    36    1
    18    35    37   ar
    19    37    38   ar
    20    38    39    1
    21     3     4   ar
    22     4    22    1
    23    22    23    1
    24    22    24    1
    25     4     5   ar
    26     9    10   ar
    27    10    11   ar
    28    11    12   ar
    29    12    13   ar
    30    13    16    1
    31    16    17    1
    32    16    18    1
    33    16    19    1
    34    13    14   ar
    35    14    15   ar
    36    15     6   ar
    37     5     1   ar
    38    15    10   ar
    39    38    32   ar
    40    29    30    1
    41    24    25    1
    42    24    26    1
@<TRIPOS>MOLECULE
*****
 39 42 0 0 0
SMALL
GASTEIGER

@<TRIPOS>ATOM
      1 C          61.5785   88.8359   10.0378 C.ar    1  UNL1        0.2295
      2 N          61.0567   89.8191    9.0322 N.ar    1  UNL1       -0.2039
      3 C          60.2729   89.0586    8.0039 C.ar    1  UNL1        0.1690
      4 C          60.3101   87.6055    8.3740 C.ar    1  UNL1        0.1605
      5 O          61.1171   87.4679    9.6310 O.2     1  UNL1       -0.4374
      6 C          64.0875   89.8182   13.6419 C.ar    1  UNL1        0.1562
      7 C          63.5939   90.9181   12.7494 C.ar    1  UNL1        0.0386
      8 C          62.7576   90.5906   11.5480 C.ar    1  UNL1        0.0079
      9 C          62.4148   89.1634   11.2391 C.ar    1  UNL1        0.0552
     10 C          62.9084   88.0634   12.1317 C.ar    1  UNL1        0.0252
     11 C          62.5657   86.6362   11.8229 C.ar    1  UNL1        0.0032
     12 C          63.0593   85.5364   12.7154 C.ar    1  UNL1        0.0231
     13 C          63.8956   85.8638   13.9168 C.ar    1  UNL1        0.1527
     14 N          64.2384   87.2910   14.2257 N.ar    1  UNL1       -0.2383
     15 C          63.7448   88.3909   13.3331 C.ar    1  UNL1        0.1151
     16 C          64.3892   84.7639   14.8094 C.3     1  UNL1        0.4348
     17 F          64.8828   83.6640   15.7019 F       1  UNL1       -0.1644
     18 F          64.9318   84.0375   13.6144 F       1  UNL1       -0.1644
     19 F          63.8467   85.4902   16.0044 F       1  UNL1       -0.1644
     20 C          64.6099   91.3589   15.6676 C.3     1  UNL1        0.2525
     21 O          64.9238   90.1457   14.8433 O.3     1  UNL1       -0.4699
     22 C          59.6555   86.4864    7.6196 C.3     1  UNL1        0.1109
     23 C          60.4951   85.4182    6.9844 C.3     1  UNL1        0.0251
     24 N          58.1610   86.4358    7.5005 N.3     1  UNL1       -0.3162
     25 H          57.7539   87.2340    7.9879 H       1  UNL1        0.1192
     26 H          57.8159   85.5710    7.9169 H       1  UNL1        0.1192
     27 C          59.5744   89.6479    6.8145 C.2     1  UNL1        0.2667
     28 O          58.1293   89.3347    6.5621 O.2     1  UNL1       -0.2684
     29 N          60.3209   90.5504    5.8774 N.am    1  UNL1       -0.2955
     30 H          61.2694   90.7560    6.0431 H       1  UNL1        0.1501
     31 C          59.6224   91.1397    4.6879 C.3     1  UNL1        0.1189
     32 C          60.3777   92.0153    3.7323 C.ar    1  UNL1        0.0251
     33 C          59.6960   93.1869    3.0900 C.ar    1  UNL1        0.0019
     34 C          60.4513   94.0625    2.1344 C.ar    1  UNL1        0.0295
     35 C          61.8880   93.7663    1.8212 C.ar    1  UNL1        0.1424
     36 F          62.6432   94.6419    0.8657 F       1  UNL1       -0.2041
     37 C          62.5695   92.5947    2.4636 C.ar    1  UNL1        0.0590
     38 C          61.8144   91.7192    3.4192 C.ar    1  UNL1        0.1400
     39 F          62.4959   90.5475    4.0616 F       1  UNL1       -0.2044
@<TRIPOS>BOND
     1    20    21    1
     2    21     6    1
     3     6     7   ar
     4     7     8   ar
     5     8     9   ar
     6     9     1    1
     7     1     2   ar
     8     2     3   ar
     9     3    27    1
    10    27    28    2
    11    27    29   am
    12    29    31    1
    13    31    32    1
    14    32    33   ar
    15    33    34   ar
    16    34    35   ar
    17    35    36    1
    18    35    37   ar
    19    37    38   ar
    20    38    39    1
    21     3     4   ar
    22     4    22    1
    23    22    23    1
    24    22    24    1
    25     4     5   ar
    26     9    10   ar
    27    10    11   ar
    28    11    12   ar
    29    12    13   ar
    30    13    16    1
    31    16    17    1
    32    16    18    1
    33    16    19    1
    34    13    14   ar
    35    14    15   ar
    36    15     6   ar
    37     5     1   ar
    38    15    10   ar
    39    38    32   ar
    40    29    30    1
    41    24    25    1
    42    24    26    1
@<TRIPOS>MOLECULE
*****
 39 42 0 0 0
SMALL
GASTEIGER

@<TRIPOS>ATOM
      1 C          63.7188   85.8556   13.8664 C.ar    1  UNL1        0.2295
      2 N          64.0512   87.2721   13.5018 N.ar    1  UNL1       -0.2039
      3 C          63.8555   88.1230   14.7215 C.ar    1  UNL1        0.1690
      4 C          63.4021   87.2323   15.8401 C.ar    1  UNL1        0.1605
      5 O          63.3176   85.8310   15.3116 O.2     1  UNL1       -0.4374
      6 C          63.8941   82.3036   11.1092 C.ar    1  UNL1        0.1562
      7 C          64.3914   82.1838   12.5192 C.ar    1  UNL1        0.0386
      8 C          64.3330   83.3678   13.4383 C.ar    1  UNL1        0.0079
      9 C          63.7772   84.6716   12.9473 C.ar    1  UNL1        0.0552
     10 C          63.2798   84.7915   11.5372 C.ar    1  UNL1        0.0252
     11 C          62.7241   86.0953   11.0463 C.ar    1  UNL1        0.0032
     12 C          62.2267   86.2152    9.6362 C.ar    1  UNL1        0.0231
     13 C          62.2852   85.0312    8.7172 C.ar    1  UNL1        0.1527
     14 N          62.8409   83.7273    9.2081 N.ar    1  UNL1       -0.2383
     15 C          63.3383   83.6075   10.6182 C.ar    1  UNL1        0.1151
     16 C          61.7878   85.1510    7.3071 C.3     1  UNL1        0.4348
     17 F          61.2904   85.2709    5.8970 F       1  UNL1       -0.1644
     18 F          63.0934   84.6136    6.8008 F       1  UNL1       -0.1644
     19 F          60.4821   85.6885    7.8133 F       1  UNL1       -0.1644
     20 C          62.8767   80.0757   10.2425 C.3     1  UNL1        0.2525
     21 O          63.9525   81.1196   10.1901 O.3     1  UNL1       -0.4699
     22 C          63.0884   87.6667   17.2411 C.3     1  UNL1        0.1109
     23 C          62.6875   86.6508   18.2692 C.3     1  UNL1        0.0251
     24 N          63.1755   89.1170   17.6138 N.3     1  UNL1       -0.3162
     25 H          63.4597   89.6610   16.7991 H       1  UNL1        0.1192
     26 H          63.8622   89.2360   18.3586 H       1  UNL1        0.1192
     27 C          64.0748   89.6044   14.8075 C.2     1  UNL1        0.2667
     28 O          62.9301   90.5137   15.1436 O.2     1  UNL1       -0.2684
     29 N          65.4387   90.1764   14.5575 N.am    1  UNL1       -0.2955
     30 H          66.1899   89.5796   14.3369 H       1  UNL1        0.1501
     31 C          65.6579   91.6578   14.6436 C.3     1  UNL1        0.1189
     32 C          65.6989   92.4839   13.3921 C.ar    1  UNL1        0.0251
     33 C          65.0553   91.9752   12.1363 C.ar    1  UNL1        0.0019
     34 C          65.0963   92.8013   10.8849 C.ar    1  UNL1        0.0295
     35 C          65.7810   94.1359   10.8893 C.ar    1  UNL1        0.1424
     36 F          65.8220   94.9619    9.6379 F       1  UNL1       -0.2041
     37 C          66.4246   94.6445   12.1451 C.ar    1  UNL1        0.0590
     38 C          66.3835   93.8185   13.3965 C.ar    1  UNL1        0.1400
     39 F          67.0272   94.3271   14.6523 F       1  UNL1       -0.2044
@<TRIPOS>BOND
     1    20    21    1
     2    21     6    1
     3     6     7   ar
     4     7     8   ar
     5     8     9   ar
     6     9     1    1
     7     1     2   ar
     8     2     3   ar
     9     3    27    1
    10    27    28    2
    11    27    29   am
    12    29    31    1
    13    31    32    1
    14    32    33   ar
    15    33    34   ar
    16    34    35   ar
    17    35    36    1
    18    35    37   ar
    19    37    38   ar
    20    38    39    1
    21     3     4   ar
    22     4    22    1
    23    22    23    1
    24    22    24    1
    25     4     5   ar
    26     9    10   ar
    27    10    11   ar
    28    11    12   ar
    29    12    13   ar
    30    13    16    1
    31    16    17    1
    32    16    18    1
    33    16    19    1
    34    13    14   ar
    35    14    15   ar
    36    15     6   ar
    37     5     1   ar
    38    15    10   ar
    39    38    32   ar
    40    29    30    1
    41    24    25    1
    42    24    26    1
@<TRIPOS>MOLECULE
*****
 39 42 0 0 0
SMALL
GASTEIGER

@<TRIPOS>ATOM
      1 C          64.8645   89.5797   14.0558 C.ar    1  UNL1        0.2295
      2 N          63.8467   89.3610   12.9758 N.ar    1  UNL1       -0.2039
      3 C          63.3603   87.9457   13.0769 C.ar    1  UNL1        0.1690
      4 C          64.0774   87.2896   14.2194 C.ar    1  UNL1        0.1605
      5 O          65.0070   88.2995   14.8243 O.2     1  UNL1       -0.4374
      6 C          67.0978   93.4047   14.8505 C.ar    1  UNL1        0.1562
      7 C          67.0060   92.3543   15.9173 C.ar    1  UNL1        0.0386
      8 C          66.2615   91.0793   15.6524 C.ar    1  UNL1        0.0079
      9 C          65.6089   90.8547   14.3207 C.ar    1  UNL1        0.0552
     10 C          65.7008   91.9051   13.2537 C.ar    1  UNL1        0.0252
     11 C          65.0482   91.6805   11.9220 C.ar    1  UNL1        0.0032
     12 C          65.1400   92.7308   10.8551 C.ar    1  UNL1        0.0231
     13 C          65.8845   94.0058   11.1200 C.ar    1  UNL1        0.1527
     14 N          66.5371   94.2305   12.4518 N.ar    1  UNL1       -0.2383
     15 C          66.4452   93.1801   13.5186 C.ar    1  UNL1        0.1151
     16 C          65.9763   95.0562   10.0531 C.3     1  UNL1        0.4348
     17 F          66.0681   96.1066    8.9862 F       1  UNL1       -0.1644
     18 F          66.6366   94.0685    9.1374 F       1  UNL1       -0.1644
     19 F          65.3160   96.0439   10.9687 F       1  UNL1       -0.1644
     20 C          69.0724   94.6655   15.9735 C.3     1  UNL1        0.2525
     21 O          67.8423   94.6797   15.1154 O.3     1  UNL1       -0.4699
     22 C          63.8967   85.8725   14.6766 C.3     1  UNL1        0.1109
     23 C          64.8592   84.8120   14.2307 C.3     1  UNL1        0.0251
     24 N          62.7534   85.5159   15.5798 N.3     1  UNL1       -0.3162
     25 H          62.2049   86.3522   15.7803 H       1  UNL1        0.1192
     26 H          63.1163   85.1302   16.4516 H       1  UNL1        0.1192
     27 C          62.3365   87.2999   12.1910 C.2     1  UNL1        0.2667
     28 O          62.0013   85.8484   12.3667 O.2     1  UNL1       -0.2684
     29 N          61.6479   88.1055   11.1296 N.am    1  UNL1       -0.2955
     30 H          61.8679   89.0582   11.0143 H       1  UNL1        0.1501
     31 C          60.6241   87.4597   10.2437 C.3     1  UNL1        0.1189
     32 C          61.0615   86.5988    9.0958 C.ar    1  UNL1        0.0251
     33 C          62.4842   86.1315    9.0084 C.ar    1  UNL1        0.0019
     34 C          62.9216   85.2706    7.8605 C.ar    1  UNL1        0.0295
     35 C          61.9364   84.8772    6.8000 C.ar    1  UNL1        0.1424
     36 F          62.3738   84.0164    5.6522 F       1  UNL1       -0.2041
     37 C          60.5138   85.3446    6.8874 C.ar    1  UNL1        0.0590
     38 C          60.0764   86.2054    8.0353 C.ar    1  UNL1        0.1400
     39 F          58.6538   86.6729    8.1227 F       1  UNL1       -0.2044
@<TRIPOS>BOND
     1    20    21    1
     2    21     6    1
     3     6     7   ar
     4     7     8   ar
     5     8     9   ar
     6     9     1    1
     7     1     2   ar
     8     2     3   ar
     9     3    27    1
    10    27    28    2
    11    27    29   am
    12    29    31    1
    13    31    32    1
    14    32    33   ar
    15    33    34   ar
    16    34    35   ar
    17    35    36    1
    18    35    37   ar
    19    37    38   ar
    20    38    39    1
    21     3     4   ar
    22     4    22    1
    23    22    23    1
    24    22    24    1
    25     4     5   ar
    26     9    10   ar
    27    10    11   ar
    28    11    12   ar
    29    12    13   ar
    30    13    16    1
    31    16    17    1
    32    16    18    1
    33    16    19    1
    34    13    14   ar
    35    14    15   ar
    36    15     6   ar
    37     5     1   ar
    38    15    10   ar
    39    38    32   ar
    40    29    30    1
    41    24    25    1
    42    24    26    1
