@<TRIPOS>MOLECULE
*****
 28 30 0 0 0
SMALL
GASTEIGER

@<TRIPOS>ATOM
      1 C          64.7532   91.0606   14.5576 C.ar    1  UNL1        0.0857
      2 C          66.2057   91.3182   14.8290 C.ar    1  UNL1        0.0089
      3 C          67.0864   91.8627   13.7436 C.ar    1  UNL1        0.0194
      4 C          66.5145   92.1495   12.3869 C.ar    1  UNL1        0.0857
      5 C          67.1330   92.6855   11.1299 C.ar    1  UNL1        0.1181
      6 N          66.0626   92.7591   10.0816 N.ar    1  UNL1       -0.2220
      7 C          64.7826   92.2685   10.6908 C.ar    1  UNL1        0.1837
      8 N          65.0619   91.8918   12.1156 N.ar    1  UNL1       -0.2759
      9 C          64.1813   91.3473   13.2009 C.ar    1  UNL1        0.1224
     10 O          63.3954   91.4161   16.7440 O.2     1  UNL1       -0.2680
     11 C          63.8724   90.5161   15.6430 C.2     1  UNL1        0.2706
     12 N          63.4688   89.0715   15.6272 N.am    1  UNL1       -0.1896
     13 H          63.7819   88.4808   14.9046 H       1  UNL1        0.1828
     14 O          62.5881   88.5270   16.7125 O.3     1  UNL1       -0.2635
     15 C          62.9813   87.2757   17.4405 C.3     1  UNL1        0.2026
     16 C          62.2279   86.0009   17.2014 C.3     1  UNL1        0.1719
     17 O          60.7771   86.0469   16.8227 O.3     1  UNL1       -0.3794
     18 H          60.2611   86.4042   17.5622 H       1  UNL1        0.2105
     19 N          62.7287   91.0896   12.9296 N.pl3   1  UNL1       -0.2971
     20 H          62.0397   91.6123   13.4000 H       1  UNL1        0.1536
     21 C          62.3258   90.0354   11.9413 C.ar    1  UNL1        0.0772
     22 C          61.3087   90.3481   10.8841 C.ar    1  UNL1        0.0174
     23 C          60.9058   89.2940    9.8959 C.ar    1  UNL1        0.0072
     24 C          61.5201   87.9273    9.9649 C.ar    1  UNL1        0.0324
     25 I          61.1173   86.8731    8.9767 I       1  UNL1       -0.0424
     26 C          62.5372   87.6147   11.0221 C.ar    1  UNL1        0.0367
     27 C          62.9400   88.6688   12.0103 C.ar    1  UNL1        0.1539
     28 F          63.9572   88.3561   13.0676 F       1  UNL1       -0.2028
@<TRIPOS>BOND
     1    10    11    2
     2    11    12   am
     3    12    14    1
     4    14    15    1
     5    15    16    1
     6    16    17    1
     7    11     1    1
     8     1     2   ar
     9     2     3   ar
    10     3     4   ar
    11     4     5   ar
    12     5     6   ar
    13     6     7   ar
    14     7     8   ar
    15     8     9   ar
    16     9    19    1
    17    19    21    1
    18    21    22   ar
    19    22    23   ar
    20    23    24   ar
    21    24    25    1
    22    24    26   ar
    23    26    27   ar
    24    27    28    1
    25     9     1   ar
    26    27    21   ar
    27     8     4   ar
    28    12    13    1
    29    17    18    1
    30    19    20    1
@<TRIPOS>MOLECULE
*****
 28 30 0 0 0
SMALL
GASTEIGER

@<TRIPOS>ATOM
      1 C          64.2963   90.1862   14.3440 C.ar    1  UNL1        0.0857
      2 C          65.6835   90.6156   14.7196 C.ar    1  UNL1        0.0089
      3 C          66.4493   91.5447   13.8248 C.ar    1  UNL1        0.0194
      4 C          65.8277   92.0442   12.5544 C.ar    1  UNL1        0.0857
      5 C          66.3355   92.9614   11.4816 C.ar    1  UNL1        0.1181
      6 N          65.2621   93.0987   10.4429 N.ar    1  UNL1       -0.2220
      7 C          64.0909   92.2665   10.8737 C.ar    1  UNL1        0.1837
      8 N          64.4404   91.6148   12.1787 N.ar    1  UNL1       -0.2759
      9 C          63.6748   90.6858   13.0735 C.ar    1  UNL1        0.1224
     10 O          62.3828   89.7763   16.0529 O.2     1  UNL1       -0.2680
     11 C          63.5306   89.2572   15.2388 C.2     1  UNL1        0.2706
     12 N          63.9128   87.8089   15.3194 N.am    1  UNL1       -0.1896
     13 H          64.6662   87.4682   14.7850 H       1  UNL1        0.1828
     14 O          63.1471   86.8799   16.2141 O.3     1  UNL1       -0.2635
     15 C          63.4716   85.4154   16.2285 C.3     1  UNL1        0.2026
     16 C          62.6360   84.4543   15.4360 C.3     1  UNL1        0.1719
     17 O          62.7731   82.9778   15.6625 O.3     1  UNL1       -0.3794
     18 H          63.6574   82.6892   15.3875 H       1  UNL1        0.2105
     19 N          62.2875   90.2563   12.6979 N.pl3   1  UNL1       -0.2971
     20 H          61.5086   90.6727   13.1327 H       1  UNL1        0.1536
     21 C          62.0870   89.1923   11.6597 C.ar    1  UNL1        0.0772
     22 C          62.7067   87.8387   11.8438 C.ar    1  UNL1        0.0174
     23 C          62.5062   86.7747   10.8055 C.ar    1  UNL1        0.0072
     24 C          61.6862   87.0643    9.5834 C.ar    1  UNL1        0.0324
     25 I          61.4857   86.0004    8.5452 I       1  UNL1       -0.0424
     26 C          61.0666   88.4179    9.3994 C.ar    1  UNL1        0.0367
     27 C          61.2671   89.4819   10.4376 C.ar    1  UNL1        0.1539
     28 F          60.6474   90.8355   10.2535 F       1  UNL1       -0.2028
@<TRIPOS>BOND
     1    10    11    2
     2    11    12   am
     3    12    14    1
     4    14    15    1
     5    15    16    1
     6    16    17    1
     7    11     1    1
     8     1     2   ar
     9     2     3   ar
    10     3     4   ar
    11     4     5   ar
    12     5     6   ar
    13     6     7   ar
    14     7     8   ar
    15     8     9   ar
    16     9    19    1
    17    19    21    1
    18    21    22   ar
    19    22    23   ar
    20    23    24   ar
    21    24    25    1
    22    24    26   ar
    23    26    27   ar
    24    27    28    1
    25     9     1   ar
    26    27    21   ar
    27     8     4   ar
    28    12    13    1
    29    17    18    1
    30    19    20    1
@<TRIPOS>MOLECULE
*****
 28 30 0 0 0
SMALL
GASTEIGER

@<TRIPOS>ATOM
      1 C          62.4998   83.4192   14.0395 C.ar    1  UNL1        0.0857
      2 C          62.0714   82.1279   14.6710 C.ar    1  UNL1        0.0089
      3 C          62.1192   80.8541   13.8802 C.ar    1  UNL1        0.0194
      4 C          62.5955   80.8718   12.4579 C.ar    1  UNL1        0.0857
      5 C          62.7509   79.7830   11.4380 C.ar    1  UNL1        0.1181
      6 N          63.2753   80.4015   10.1761 N.ar    1  UNL1       -0.2220
      7 C          63.4441   81.8725   10.4162 C.ar    1  UNL1        0.1837
      8 N          63.0239   82.1632   11.8265 N.ar    1  UNL1       -0.2759
      9 C          62.9761   83.4369   12.6172 C.ar    1  UNL1        0.1224
     10 O          63.3675   85.8283   14.4797 O.2     1  UNL1       -0.2680
     11 C          62.4520   84.6930   14.8303 C.2     1  UNL1        0.2706
     12 N          61.4886   84.8315   15.9716 N.am    1  UNL1       -0.1896
     13 H          60.8877   84.0863   16.2017 H       1  UNL1        0.1828
     14 O          61.4408   86.1052   16.7624 O.3     1  UNL1       -0.2635
     15 C          62.6941   86.6536   17.3776 C.3     1  UNL1        0.2026
     16 C          63.0996   88.0736   17.1144 C.3     1  UNL1        0.1719
     17 O          63.5649   88.4794   15.7473 O.3     1  UNL1       -0.3794
     18 H          64.4010   88.0315   15.5442 H       1  UNL1        0.2105
     19 N          63.4046   84.7283   11.9858 N.pl3   1  UNL1       -0.2971
     20 H          64.2834   85.1149   12.2034 H       1  UNL1        0.1536
     21 C          62.4939   85.4307   11.0226 C.ar    1  UNL1        0.0772
     22 C          61.3901   86.3064   11.5371 C.ar    1  UNL1        0.0174
     23 C          60.4794   87.0088   10.5739 C.ar    1  UNL1        0.0072
     24 C          60.6727   86.8353    9.0966 C.ar    1  UNL1        0.0324
     25 I          59.7621   87.5376    8.1335 I       1  UNL1       -0.0424
     26 C          61.7765   85.9595    8.5823 C.ar    1  UNL1        0.0367
     27 C          62.6871   85.2572    9.5454 C.ar    1  UNL1        0.1539
     28 F          63.7910   84.3814    9.0310 F       1  UNL1       -0.2028
@<TRIPOS>BOND
     1    10    11    2
     2    11    12   am
     3    12    14    1
     4    14    15    1
     5    15    16    1
     6    16    17    1
     7    11     1    1
     8     1     2   ar
     9     2     3   ar
    10     3     4   ar
    11     4     5   ar
    12     5     6   ar
    13     6     7   ar
    14     7     8   ar
    15     8     9   ar
    16     9    19    1
    17    19    21    1
    18    21    22   ar
    19    22    23   ar
    20    23    24   ar
    21    24    25    1
    22    24    26   ar
    23    26    27   ar
    24    27    28    1
    25     9     1   ar
    26    27    21   ar
    27     8     4   ar
    28    12    13    1
    29    17    18    1
    30    19    20    1
@<TRIPOS>MOLECULE
*****
 28 30 0 0 0
SMALL
GASTEIGER

@<TRIPOS>ATOM
      1 C          63.4798   86.0139   15.7243 C.ar    1  UNL1        0.0857
      2 C          63.1145   86.3413   17.1417 C.ar    1  UNL1        0.0089
      3 C          63.0026   87.7728   17.5760 C.ar    1  UNL1        0.0194
      4 C          63.2559   88.8768   16.5926 C.ar    1  UNL1        0.0857
      5 C          63.2207   90.3701   16.7291 C.ar    1  UNL1        0.1181
      6 N          63.5642   90.9656   15.3959 N.ar    1  UNL1       -0.2220
      7 C          63.8117   89.8403   14.4355 C.ar    1  UNL1        0.1837
      8 N          63.6212   88.5493   15.1751 N.ar    1  UNL1       -0.2759
      9 C          63.7332   87.1179   14.7409 C.ar    1  UNL1        0.1224
     10 O          64.8242   84.1088   14.5783 O.2     1  UNL1       -0.2680
     11 C          63.5918   84.5825   15.2901 C.2     1  UNL1        0.2706
     12 N          62.4712   83.6248   15.5677 N.am    1  UNL1       -0.1896
     13 H          61.6623   83.9357   16.0349 H       1  UNL1        0.1828
     14 O          62.5831   82.1934   15.1335 O.3     1  UNL1       -0.2635
     15 C          62.3847   81.8291   13.6919 C.3     1  UNL1        0.2026
     16 C          63.5251   81.2652   12.8972 C.3     1  UNL1        0.1719
     17 O          64.6767   82.1450   12.5099 O.3     1  UNL1       -0.3794
     18 H          64.3694   82.8265   11.8919 H       1  UNL1        0.2105
     19 N          64.0985   86.7905   13.3234 N.pl3   1  UNL1       -0.2971
     20 H          64.9984   86.4514   13.1128 H       1  UNL1        0.1536
     21 C          63.0925   86.9796   12.2268 C.ar    1  UNL1        0.0772
     22 C          62.8156   88.3534   11.6921 C.ar    1  UNL1        0.0174
     23 C          61.8097   88.5426   10.5954 C.ar    1  UNL1        0.0072
     24 C          61.0808   87.3580   10.0337 C.ar    1  UNL1        0.0324
     25 I          60.0749   87.5471    8.9372 I       1  UNL1       -0.0424
     26 C          61.3579   85.9842   10.5686 C.ar    1  UNL1        0.0367
     27 C          62.3637   85.7951   11.6651 C.ar    1  UNL1        0.1539
     28 F          62.6407   84.4213   12.1999 F       1  UNL1       -0.2028
@<TRIPOS>BOND
     1    10    11    2
     2    11    12   am
     3    12    14    1
     4    14    15    1
     5    15    16    1
     6    16    17    1
     7    11     1    1
     8     1     2   ar
     9     2     3   ar
    10     3     4   ar
    11     4     5   ar
    12     5     6   ar
    13     6     7   ar
    14     7     8   ar
    15     8     9   ar
    16     9    19    1
    17    19    21    1
    18    21    22   ar
    19    22    23   ar
    20    23    24   ar
    21    24    25    1
    22    24    26   ar
    23    26    27   ar
    24    27    28    1
    25     9     1   ar
    26    27    21   ar
    27     8     4   ar
    28    12    13    1
    29    17    18    1
    30    19    20    1
@<TRIPOS>MOLECULE
*****
 28 30 0 0 0
SMALL
GASTEIGER

@<TRIPOS>ATOM
      1 C          63.0353   91.0176   11.2377 C.ar    1  UNL1        0.0857
      2 C          63.7664   91.9038   10.2734 C.ar    1  UNL1        0.0089
      3 C          65.0473   92.5662   10.6865 C.ar    1  UNL1        0.0194
      4 C          65.5971   92.3422   12.0640 C.ar    1  UNL1        0.0857
      5 C          66.8283   92.8567   12.7492 C.ar    1  UNL1        0.1181
      6 N          66.8580   92.2884   14.1370 N.ar    1  UNL1       -0.2220
      7 C          65.6453   91.4227   14.3096 C.ar    1  UNL1        0.1837
      8 N          64.8660   91.4559   13.0284 N.ar    1  UNL1       -0.2759
      9 C          63.5851   90.7936   12.6152 C.ar    1  UNL1        0.1224
     10 O          60.6748   90.1129   11.8373 O.2     1  UNL1       -0.2680
     11 C          61.7544   90.3553   10.8246 C.2     1  UNL1        0.2706
     12 N          61.5532   89.9353    9.3987 N.am    1  UNL1       -0.1896
     13 H          62.2618   90.0943    8.7341 H       1  UNL1        0.1828
     14 O          60.2723   89.2730    8.9856 O.3     1  UNL1       -0.2635
     15 C          60.0722   87.8070    9.2329 C.3     1  UNL1        0.2026
     16 C          59.6742   86.9035    8.1036 C.3     1  UNL1        0.1719
     17 O          58.2244   86.6126    7.8513 O.3     1  UNL1       -0.3794
     18 H          57.8609   86.1101    8.5971 H       1  UNL1        0.2105
     19 N          62.8540   89.9073   13.5796 N.pl3   1  UNL1       -0.2971
     20 H          62.1016   90.2653   14.1038 H       1  UNL1        0.1536
     21 C          63.2694   88.4754   13.7452 C.ar    1  UNL1        0.0772
     22 C          63.1122   87.5124   12.6059 C.ar    1  UNL1        0.0174
     23 C          63.5276   86.0806   12.7715 C.ar    1  UNL1        0.0072
     24 C          64.1002   85.6119   14.0763 C.ar    1  UNL1        0.0324
     25 I          64.5155   84.1801   14.2419 I       1  UNL1       -0.0424
     26 C          64.2574   86.5749   15.2155 C.ar    1  UNL1        0.0367
     27 C          63.8420   88.0067   15.0499 C.ar    1  UNL1        0.1539
     28 F          63.9992   88.9698   16.1891 F       1  UNL1       -0.2028
@<TRIPOS>BOND
     1    10    11    2
     2    11    12   am
     3    12    14    1
     4    14    15    1
     5    15    16    1
     6    16    17    1
     7    11     1    1
     8     1     2   ar
     9     2     3   ar
    10     3     4   ar
    11     4     5   ar
    12     5     6   ar
    13     6     7   ar
    14     7     8   ar
    15     8     9   ar
    16     9    19    1
    17    19    21    1
    18    21    22   ar
    19    22    23   ar
    20    23    24   ar
    21    24    25    1
    22    24    26   ar
    23    26    27   ar
    24    27    28    1
    25     9     1   ar
    26    27    21   ar
    27     8     4   ar
    28    12    13    1
    29    17    18    1
    30    19    20    1
@<TRIPOS>MOLECULE
*****
 28 30 0 0 0
SMALL
GASTEIGER

@<TRIPOS>ATOM
      1 C          62.7741   84.5024   14.8076 C.ar    1  UNL1        0.0857
      2 C          62.5529   83.0791   15.2257 C.ar    1  UNL1        0.0089
      3 C          62.8214   81.9632   14.2598 C.ar    1  UNL1        0.0194
      4 C          63.3111   82.2709   12.8758 C.ar    1  UNL1        0.0857
      5 C          63.6590   81.3872   11.7147 C.ar    1  UNL1        0.1181
      6 N          64.0953   82.2646   10.5790 N.ar    1  UNL1       -0.2220
      7 C          64.0170   83.6904   11.0381 C.ar    1  UNL1        0.1837
      8 N          63.5323   83.6943   12.4577 N.ar    1  UNL1       -0.2759
      9 C          63.2638   84.8101   13.4235 C.ar    1  UNL1        0.1224
     10 O          61.2473   85.6172   16.5898 O.2     1  UNL1       -0.2680
     11 C          62.5056   85.6183   15.7734 C.2     1  UNL1        0.2706
     12 N          63.4956   86.7353   15.9228 N.am    1  UNL1       -0.1896
     13 H          64.3215   86.7360   15.3870 H       1  UNL1        0.1828
     14 O          63.2272   87.8511   16.8886 O.3     1  UNL1       -0.2635
     15 C          62.8748   89.2168   16.3778 C.3     1  UNL1        0.2026
     16 C          63.8136   89.9381   15.4566 C.3     1  UNL1        0.1719
     17 O          63.3988   91.2360   14.8291 O.3     1  UNL1       -0.3794
     18 H          62.6613   91.0790   14.2190 H       1  UNL1        0.2105
     19 N          63.4850   86.2336   13.0054 N.pl3   1  UNL1       -0.2971
     20 H          64.1896   86.7694   13.4364 H       1  UNL1        0.1536
     21 C          62.6328   86.8406   11.9305 C.ar    1  UNL1        0.0772
     22 C          61.6556   85.9877   11.1771 C.ar    1  UNL1        0.0174
     23 C          60.8033   86.5948   10.1023 C.ar    1  UNL1        0.0072
     24 C          60.9284   88.0546    9.7809 C.ar    1  UNL1        0.0324
     25 I          60.0762   88.6617    8.7061 I       1  UNL1       -0.0424
     26 C          61.9057   88.9074   10.5343 C.ar    1  UNL1        0.0367
     27 C          62.7579   88.3004   11.6091 C.ar    1  UNL1        0.1539
     28 F          63.7352   89.1532   12.3626 F       1  UNL1       -0.2028
@<TRIPOS>BOND
     1    10    11    2
     2    11    12   am
     3    12    14    1
     4    14    15    1
     5    15    16    1
     6    16    17    1
     7    11     1    1
     8     1     2   ar
     9     2     3   ar
    10     3     4   ar
    11     4     5   ar
    12     5     6   ar
    13     6     7   ar
    14     7     8   ar
    15     8     9   ar
    16     9    19    1
    17    19    21    1
    18    21    22   ar
    19    22    23   ar
    20    23    24   ar
    21    24    25    1
    22    24    26   ar
    23    26    27   ar
    24    27    28    1
    25     9     1   ar
    26    27    21   ar
    27     8     4   ar
    28    12    13    1
    29    17    18    1
    30    19    20    1
@<TRIPOS>MOLECULE
*****
 28 30 0 0 0
SMALL
GASTEIGER

@<TRIPOS>ATOM
      1 C          63.8135   90.2678   15.9228 C.ar    1  UNL1        0.0857
      2 C          63.9679   91.4130   16.8791 C.ar    1  UNL1        0.0089
      3 C          64.9416   92.5141   16.5797 C.ar    1  UNL1        0.0194
      4 C          65.7609   92.4698   15.3240 C.ar    1  UNL1        0.0857
      5 C          66.7931   93.4041   14.7657 C.ar    1  UNL1        0.1181
      6 N          67.2766   92.8362   13.4642 N.ar    1  UNL1       -0.2220
      7 C          66.5432   91.5510   13.2183 C.ar    1  UNL1        0.1837
      8 N          65.6064   91.3246   14.3677 N.ar    1  UNL1       -0.2759
      9 C          64.6327   90.2236   14.6671 C.ar    1  UNL1        0.1224
     10 O          61.3648   89.4306   16.1535 O.2     1  UNL1       -0.2680
     11 C          62.8397   89.1667   16.2222 C.2     1  UNL1        0.2706
     12 N          63.3411   87.8018   16.5903 N.am    1  UNL1       -0.1896
     13 H          64.3092   87.6286   16.6354 H       1  UNL1        0.1828
     14 O          62.3675   86.7007   16.8897 O.3     1  UNL1       -0.2635
     15 C          62.7285   85.2769   16.5851 C.3     1  UNL1        0.2026
     16 C          63.7020   84.9687   15.4863 C.3     1  UNL1        0.1719
     17 O          64.9825   85.7427   15.3800 O.3     1  UNL1       -0.3794
     18 H          64.7843   86.6680   15.1666 H       1  UNL1        0.2105
     19 N          64.4782   89.0783   13.7108 N.pl3   1  UNL1       -0.2971
     20 H          65.0437   88.2780   13.8057 H       1  UNL1        0.1536
     21 C          63.4621   89.1524   12.6098 C.ar    1  UNL1        0.0772
     22 C          62.9991   90.4869   12.1052 C.ar    1  UNL1        0.0174
     23 C          61.9829   90.5610   11.0042 C.ar    1  UNL1        0.0072
     24 C          61.4299   89.3005   10.4079 C.ar    1  UNL1        0.0324
     25 I          60.4139   89.3746    9.3070 I       1  UNL1       -0.0424
     26 C          61.8930   87.9661   10.9126 C.ar    1  UNL1        0.0367
     27 C          62.9091   87.8920   12.0135 C.ar    1  UNL1        0.1539
     28 F          63.3722   86.5575   12.5182 F       1  UNL1       -0.2028
@<TRIPOS>BOND
     1    10    11    2
     2    11    12   am
     3    12    14    1
     4    14    15    1
     5    15    16    1
     6    16    17    1
     7    11     1    1
     8     1     2   ar
     9     2     3   ar
    10     3     4   ar
    11     4     5   ar
    12     5     6   ar
    13     6     7   ar
    14     7     8   ar
    15     8     9   ar
    16     9    19    1
    17    19    21    1
    18    21    22   ar
    19    22    23   ar
    20    23    24   ar
    21    24    25    1
    22    24    26   ar
    23    26    27   ar
    24    27    28    1
    25     9     1   ar
    26    27    21   ar
    27     8     4   ar
    28    12    13    1
    29    17    18    1
    30    19    20    1
@<TRIPOS>MOLECULE
*****
 28 30 0 0 0
SMALL
GASTEIGER

@<TRIPOS>ATOM
      1 C          63.8387   86.2140   13.7446 C.ar    1  UNL1        0.0857
      2 C          64.8143   85.5728   14.6862 C.ar    1  UNL1        0.0089
      3 C          64.9291   84.0783   14.7444 C.ar    1  UNL1        0.0194
      4 C          64.0681   83.2251   13.8608 C.ar    1  UNL1        0.0857
      5 C          63.9598   81.7378   13.6986 C.ar    1  UNL1        0.1181
      6 N          62.9172   81.4600   12.6566 N.ar    1  UNL1       -0.2220
      7 C          62.3811   82.7754   12.1748 C.ar    1  UNL1        0.1837
      8 N          63.0924   83.8664   12.9191 N.ar    1  UNL1       -0.2759
      9 C          62.9777   85.3609   12.8610 C.ar    1  UNL1        0.1224
     10 O          63.3951   88.3856   12.3890 O.2     1  UNL1       -0.2680
     11 C          63.7240   87.7086   13.6864 C.2     1  UNL1        0.2706
     12 N          63.9381   88.5259   14.9258 N.am    1  UNL1       -0.1896
     13 H          64.1539   88.0815   15.7773 H       1  UNL1        0.1828
     14 O          63.8234   90.0204   14.8677 O.3     1  UNL1       -0.2635
     15 C          64.9855   90.8441   14.3974 C.3     1  UNL1        0.2026
     16 C          65.6227   91.8386   15.3221 C.3     1  UNL1        0.1719
     17 O          65.9290   93.2246   14.8369 O.3     1  UNL1       -0.3794
     18 H          66.6110   93.1828   14.1484 H       1  UNL1        0.2105
     19 N          62.0020   86.0022   11.9193 N.pl3   1  UNL1       -0.2971
     20 H          61.3302   86.6349   12.2621 H       1  UNL1        0.1536
     21 C          62.0499   85.6793   10.4551 C.ar    1  UNL1        0.0772
     22 C          63.1614   84.8324    9.9099 C.ar    1  UNL1        0.0174
     23 C          63.2093   84.5096    8.4458 C.ar    1  UNL1        0.0072
     24 C          62.1457   85.0337    7.5270 C.ar    1  UNL1        0.0324
     25 I          62.1936   84.7109    6.0630 I       1  UNL1       -0.0424
     26 C          61.0342   85.8806    8.0724 C.ar    1  UNL1        0.0367
     27 C          60.9863   86.2034    9.5364 C.ar    1  UNL1        0.1539
     28 F          59.8748   87.0503   10.0817 F       1  UNL1       -0.2028
@<TRIPOS>BOND
     1    10    11    2
     2    11    12   am
     3    12    14    1
     4    14    15    1
     5    15    16    1
     6    16    17    1
     7    11     1    1
     8     1     2   ar
     9     2     3   ar
    10     3     4   ar
    11     4     5   ar
    12     5     6   ar
    13     6     7   ar
    14     7     8   ar
    15     8     9   ar
    16     9    19    1
    17    19    21    1
    18    21    22   ar
    19    22    23   ar
    20    23    24   ar
    21    24    25    1
    22    24    26   ar
    23    26    27   ar
    24    27    28    1
    25     9     1   ar
    26    27    21   ar
    27     8     4   ar
    28    12    13    1
    29    17    18    1
    30    19    20    1
@<TRIPOS>MOLECULE
*****
 28 30 0 0 0
SMALL
GASTEIGER

@<TRIPOS>ATOM
      1 C          64.4567   91.8180   12.1099 C.ar    1  UNL1        0.0857
      2 C          65.5616   92.5995   11.4632 C.ar    1  UNL1        0.0089
      3 C          66.6599   93.1814   12.3031 C.ar    1  UNL1        0.0194
      4 C          66.6531   92.9817   13.7897 C.ar    1  UNL1        0.0857
      5 C          67.5938   93.4330   14.8673 C.ar    1  UNL1        0.1181
      6 N          67.0703   92.9304   16.1800 N.ar    1  UNL1       -0.2220
      7 C          65.8059   92.1685   15.9137 C.ar    1  UNL1        0.1837
      8 N          65.5481   92.2001   14.4364 N.ar    1  UNL1       -0.2759
      9 C          64.4499   91.6183   13.5965 C.ar    1  UNL1        0.1224
     10 O          63.6355   90.8213    9.8555 O.2     1  UNL1       -0.2680
     11 C          63.3584   91.2361   11.2700 C.2     1  UNL1        0.2706
     12 N          61.9830   91.0691   11.8448 N.am    1  UNL1       -0.1896
     13 H          61.8012   91.3414   12.7733 H       1  UNL1        0.1828
     14 O          60.8848   90.4873   11.0050 O.3     1  UNL1       -0.2635
     15 C          60.9530   89.0534   10.5696 C.3     1  UNL1        0.2026
     16 C          59.9291   88.0719   11.0580 C.3     1  UNL1        0.1719
     17 O          59.1694   88.3472   12.3218 O.3     1  UNL1       -0.3794
     18 H          59.7799   88.3336   13.0755 H       1  UNL1        0.2105
     19 N          63.3449   90.8368   14.2432 N.pl3   1  UNL1       -0.2971
     20 H          62.4932   91.2786   14.4636 H       1  UNL1        0.1536
     21 C          63.5377   89.3820   14.5542 C.ar    1  UNL1        0.0772
     22 C          63.7898   88.4049   13.4444 C.ar    1  UNL1        0.0174
     23 C          63.9826   86.9502   13.7554 C.ar    1  UNL1        0.0072
     24 C          63.9233   86.4727   15.1761 C.ar    1  UNL1        0.0324
     25 I          64.1160   85.0180   15.4871 I       1  UNL1       -0.0424
     26 C          63.6712   87.4499   16.2859 C.ar    1  UNL1        0.0367
     27 C          63.4784   88.9045   15.9749 C.ar    1  UNL1        0.1539
     28 F          63.2264   89.8817   17.0847 F       1  UNL1       -0.2028
@<TRIPOS>BOND
     1    10    11    2
     2    11    12   am
     3    12    14    1
     4    14    15    1
     5    15    16    1
     6    16    17    1
     7    11     1    1
     8     1     2   ar
     9     2     3   ar
    10     3     4   ar
    11     4     5   ar
    12     5     6   ar
    13     6     7   ar
    14     7     8   ar
    15     8     9   ar
    16     9    19    1
    17    19    21    1
    18    21    22   ar
    19    22    23   ar
    20    23    24   ar
    21    24    25    1
    22    24    26   ar
    23    26    27   ar
    24    27    28    1
    25     9     1   ar
    26    27    21   ar
    27     8     4   ar
    28    12    13    1
    29    17    18    1
    30    19    20    1
