@<TRIPOS>MOLECULE
*****
 29 33 0 0 0
SMALL
GASTEIGER

@<TRIPOS>ATOM
      1 C          64.9723   91.3440   13.5876 C.ar    1  UNL1        0.1133
      2 C          64.4906   91.7599   14.9459 C.ar    1  UNL1        0.0189
      3 C          63.9515   90.7330   15.8974 C.ar    1  UNL1        0.0041
      4 C          63.8942   89.2904   15.4905 C.ar    1  UNL1        0.0333
      5 C          63.4179   88.0630   16.2093 C.ar    1  UNL1        0.0138
      6 C          63.6053   86.8886   15.2952 C.ar    1  UNL1        0.1337
      7 O          64.1974   87.3901   14.0115 O.2     1  UNL1       -0.4567
      8 C          64.3760   88.8745   14.1322 C.ar    1  UNL1        0.1459
      9 C          64.9150   89.9013   13.1808 C.ar    1  UNL1        0.0562
     10 C          63.2126   85.5141   15.7498 C.3     1  UNL1        0.1210
     11 C          63.7927   85.7141   14.3811 C.3     1  UNL1        0.0268
     12 C          63.9801   84.5397   13.4671 C.3     1  UNL1        0.0339
     13 C          63.5873   83.1653   13.9218 C.3     1  UNL1        0.1423
     14 O          63.0072   82.9653   15.2905 O.3     1  UNL1       -0.3519
     15 C          62.8198   84.1397   16.2045 C.3     1  UNL1        0.1637
     16 N          62.6324   85.3142   17.1186 N.3     1  UNL1       -0.2917
     17 C          62.4451   86.4887   18.0327 C.3     1  UNL1        0.0737
     18 C          62.8378   87.8631   17.5780 C.3     1  UNL1        0.0463
     19 H          63.2434   84.6576   17.6044 H       1  UNL1        0.1236
     20 O          66.4383   92.8728   13.7032 O.2     1  UNL1       -0.1642
     21 S          65.5113   92.3707   12.6362 S.O2    1  UNL1        0.0276
     22 O          64.5844   91.8686   11.5692 O.2     1  UNL1       -0.1642
     23 C          66.0504   93.3974   11.6848 C.ar    1  UNL1        0.1125
     24 C          65.9552   94.8559   12.0223 C.ar    1  UNL1        0.0189
     25 C          66.4942   95.8826   11.0709 C.ar    1  UNL1        0.0036
     26 C          67.1284   95.4509    9.7819 C.ar    1  UNL1        0.0297
     27 C          67.2236   93.9925    9.4444 C.ar    1  UNL1        0.1414
     28 F          67.8579   93.5608    8.1554 F       1  UNL1       -0.2041
     29 C          66.6846   92.9658   10.3958 C.ar    1  UNL1        0.0484
@<TRIPOS>BOND
     1    20    21    2
     2    21    22    2
     3    21    23    1
     4    23    24   ar
     5    24    25   ar
     6    25    26   ar
     7    26    27   ar
     8    27    28    1
     9    27    29   ar
    10    21     1    1
    11     1     2   ar
    12     2     3   ar
    13     3     4   ar
    14     4     5   ar
    15     5     6   ar
    16     6     7   ar
    17     7     8   ar
    18     8     9   ar
    19     6    10    1
    20    10    11    1
    21    11    12    1
    22    12    13    1
    23    13    14    1
    24    14    15    1
    25    10    16    1
    26    16    17    1
    27    17    18    1
    28    29    23   ar
    29     9     1   ar
    30    15    10    1
    31     8     4   ar
    32    18     5    1
    33    16    19    1
@<TRIPOS>MOLECULE
*****
 29 33 0 0 0
SMALL
GASTEIGER

@<TRIPOS>ATOM
      1 C          62.7318   89.9527   12.5198 C.ar    1  UNL1        0.1133
      2 C          61.2968   90.3857   12.4642 C.ar    1  UNL1        0.0189
      3 C          60.3581   89.7470   11.4837 C.ar    1  UNL1        0.0041
      4 C          60.8546   88.6754   10.5590 C.ar    1  UNL1        0.0333
      5 C          60.1683   87.8701    9.4958 C.ar    1  UNL1        0.0138
      6 C          61.1793   86.9394    8.8943 C.ar    1  UNL1        0.1337
      7 O          62.4904   87.1695    9.5858 O.2     1  UNL1       -0.4567
      8 C          62.2897   88.2424   10.6147 C.ar    1  UNL1        0.1459
      9 C          63.2283   88.8810   11.5951 C.ar    1  UNL1        0.0562
     10 C          60.7755   86.0026    7.7946 C.3     1  UNL1        0.1210
     11 C          62.1902   86.0087    8.2928 C.3     1  UNL1        0.0268
     12 C          63.2011   85.0780    7.6913 C.3     1  UNL1        0.0339
     13 C          62.7973   84.1412    6.5916 C.3     1  UNL1        0.1423
     14 O          61.3825   84.1352    6.0934 O.3     1  UNL1       -0.3519
     15 C          60.3716   85.0659    6.6949 C.3     1  UNL1        0.1637
     16 N          59.3606   85.9966    7.2964 N.3     1  UNL1       -0.2917
     17 C          58.3497   86.9273    7.8978 C.3     1  UNL1        0.0737
     18 C          58.7536   87.8641    8.9975 C.3     1  UNL1        0.0463
     19 H          59.0054   85.0498    7.4301 H       1  UNL1        0.1236
     20 O          64.4322   91.2118   12.3667 O.2     1  UNL1       -0.1642
     21 S          63.6704   90.5914   13.5002 S.O2    1  UNL1        0.0276
     22 O          62.9087   89.9709   14.6337 O.2     1  UNL1       -0.1642
     23 C          64.6090   91.2300   14.4806 C.ar    1  UNL1        0.1125
     24 C          64.1275   91.5893   15.8550 C.ar    1  UNL1        0.0189
     25 C          65.0661   92.2280   16.8353 C.ar    1  UNL1        0.0036
     26 C          66.4863   92.5072   16.4413 C.ar    1  UNL1        0.0297
     27 C          66.9678   92.1479   15.0669 C.ar    1  UNL1        0.1414
     28 F          68.3879   92.4272   14.6729 F       1  UNL1       -0.2041
     29 C          66.0292   91.5093   14.0865 C.ar    1  UNL1        0.0484
@<TRIPOS>BOND
     1    20    21    2
     2    21    22    2
     3    21    23    1
     4    23    24   ar
     5    24    25   ar
     6    25    26   ar
     7    26    27   ar
     8    27    28    1
     9    27    29   ar
    10    21     1    1
    11     1     2   ar
    12     2     3   ar
    13     3     4   ar
    14     4     5   ar
    15     5     6   ar
    16     6     7   ar
    17     7     8   ar
    18     8     9   ar
    19     6    10    1
    20    10    11    1
    21    11    12    1
    22    12    13    1
    23    13    14    1
    24    14    15    1
    25    10    16    1
    26    16    17    1
    27    17    18    1
    28    29    23   ar
    29     9     1   ar
    30    15    10    1
    31     8     4   ar
    32    18     5    1
    33    16    19    1
@<TRIPOS>MOLECULE
*****
 29 33 0 0 0
SMALL
GASTEIGER

@<TRIPOS>ATOM
      1 C          62.6360   89.0289   10.7572 C.ar    1  UNL1        0.1133
      2 C          62.9568   88.5704   12.1489 C.ar    1  UNL1        0.0189
      3 C          63.7660   89.4461   13.0592 C.ar    1  UNL1        0.0041
      4 C          64.2543   90.7801   12.5777 C.ar    1  UNL1        0.0333
      5 C          65.0658   91.8518   13.2433 C.ar    1  UNL1        0.0138
      6 C          65.2466   92.9726   12.2628 C.ar    1  UNL1        0.1337
      7 O          64.5468   92.5936   10.9914 O.2     1  UNL1       -0.4567
      8 C          63.9335   91.2386   11.1860 C.ar    1  UNL1        0.1459
      9 C          63.1244   90.3630   10.2757 C.ar    1  UNL1        0.0562
     10 C          66.0251   94.1934   12.6545 C.3     1  UNL1        0.1210
     11 C          65.4274   94.0933   11.2825 C.3     1  UNL1        0.0268
     12 C          65.6082   95.2140   10.3021 C.3     1  UNL1        0.0339
     13 C          66.3868   96.4349   10.6938 C.3     1  UNL1        0.1423
     14 O          66.9845   96.5350   12.0659 O.3     1  UNL1       -0.3519
     15 C          66.8037   95.4143   13.0462 C.3     1  UNL1        0.1637
     16 N          66.6229   94.2935   14.0267 N.3     1  UNL1       -0.2917
     17 C          66.4421   93.1727   15.0071 C.3     1  UNL1        0.0737
     18 C          65.6636   91.9519   14.6154 C.3     1  UNL1        0.0463
     19 H          66.2293   95.1293   14.4591 H       1  UNL1        0.1236
     20 O          61.2091   89.3705    9.2252 O.2     1  UNL1       -0.1642
     21 S          61.8269   88.1532    9.8469 S.O2    1  UNL1        0.0276
     22 O          62.4447   86.9360   10.4686 O.2     1  UNL1       -0.1642
     23 C          61.0178   87.2776    8.9366 C.ar    1  UNL1        0.1125
     24 C          59.5448   87.5151    8.7817 C.ar    1  UNL1        0.0189
     25 C          58.7357   86.6394    7.8714 C.ar    1  UNL1        0.0036
     26 C          59.3996   85.5264    7.1161 C.ar    1  UNL1        0.0297
     27 C          60.8725   85.2890    7.2710 C.ar    1  UNL1        0.1414
     28 F          61.5364   84.1760    6.5157 F       1  UNL1       -0.2041
     29 C          61.6816   86.1646    8.1813 C.ar    1  UNL1        0.0484
@<TRIPOS>BOND
     1    20    21    2
     2    21    22    2
     3    21    23    1
     4    23    24   ar
     5    24    25   ar
     6    25    26   ar
     7    26    27   ar
     8    27    28    1
     9    27    29   ar
    10    21     1    1
    11     1     2   ar
    12     2     3   ar
    13     3     4   ar
    14     4     5   ar
    15     5     6   ar
    16     6     7   ar
    17     7     8   ar
    18     8     9   ar
    19     6    10    1
    20    10    11    1
    21    11    12    1
    22    12    13    1
    23    13    14    1
    24    14    15    1
    25    10    16    1
    26    16    17    1
    27    17    18    1
    28    29    23   ar
    29     9     1   ar
    30    15    10    1
    31     8     4   ar
    32    18     5    1
    33    16    19    1
@<TRIPOS>MOLECULE
*****
 29 33 0 0 0
SMALL
GASTEIGER

@<TRIPOS>ATOM
      1 C          62.8185   85.5196   12.5733 C.ar    1  UNL1        0.1133
      2 C          62.2071   86.0350   11.3042 C.ar    1  UNL1        0.0189
      3 C          62.3837   87.4734   10.9168 C.ar    1  UNL1        0.0041
      4 C          63.1716   88.3963   11.7985 C.ar    1  UNL1        0.0333
      5 C          63.5122   89.8521   11.6777 C.ar    1  UNL1        0.0138
      6 C          64.3342   90.2364   12.8722 C.ar    1  UNL1        0.1337
      7 O          64.5015   89.0182   13.7312 O.2     1  UNL1       -0.4567
      8 C          63.7830   87.8809   13.0676 C.ar    1  UNL1        0.1459
      9 C          63.6064   86.4426   13.4550 C.ar    1  UNL1        0.0562
     10 C          64.8241   91.6461   13.0233 C.3     1  UNL1        0.1210
     11 C          65.1561   90.6208   14.0666 C.3     1  UNL1        0.0268
     12 C          65.9780   91.0052   15.2610 C.3     1  UNL1        0.0339
     13 C          66.4679   92.4148   15.4122 C.3     1  UNL1        0.1423
     14 O          66.1359   93.4401   14.3689 O.3     1  UNL1       -0.3519
     15 C          65.3140   93.0558   13.1745 C.3     1  UNL1        0.1637
     16 N          64.4920   92.6714   11.9800 N.3     1  UNL1       -0.2917
     17 C          63.6701   92.2870   10.7855 C.3     1  UNL1        0.0737
     18 C          63.1802   90.8774   10.6344 C.3     1  UNL1        0.0463
     19 H          65.3792   93.0278   11.6246 H       1  UNL1        0.1236
     20 O          62.9635   83.6636   11.5565 O.2     1  UNL1       -0.1642
     21 S          62.6419   84.0813   12.9607 S.O2    1  UNL1        0.0276
     22 O          62.3203   84.4990   14.3650 O.2     1  UNL1       -0.1642
     23 C          62.4654   82.6430   13.3482 C.ar    1  UNL1        0.1125
     24 C          63.6387   81.7091   13.3192 C.ar    1  UNL1        0.0189
     25 C          63.4622   80.2708   13.7066 C.ar    1  UNL1        0.0036
     26 C          62.1123   79.7664   14.1230 C.ar    1  UNL1        0.0297
     27 C          60.9389   80.7004   14.1520 C.ar    1  UNL1        0.1414
     28 F          59.5889   80.1961   14.5684 F       1  UNL1       -0.2041
     29 C          61.1154   82.1387   13.7646 C.ar    1  UNL1        0.0484
@<TRIPOS>BOND
     1    20    21    2
     2    21    22    2
     3    21    23    1
     4    23    24   ar
     5    24    25   ar
     6    25    26   ar
     7    26    27   ar
     8    27    28    1
     9    27    29   ar
    10    21     1    1
    11     1     2   ar
    12     2     3   ar
    13     3     4   ar
    14     4     5   ar
    15     5     6   ar
    16     6     7   ar
    17     7     8   ar
    18     8     9   ar
    19     6    10    1
    20    10    11    1
    21    11    12    1
    22    12    13    1
    23    13    14    1
    24    14    15    1
    25    10    16    1
    26    16    17    1
    27    17    18    1
    28    29    23   ar
    29     9     1   ar
    30    15    10    1
    31     8     4   ar
    32    18     5    1
    33    16    19    1
@<TRIPOS>MOLECULE
*****
 29 33 0 0 0
SMALL
GASTEIGER

@<TRIPOS>ATOM
      1 C          63.3992   85.9918   14.9540 C.ar    1  UNL1        0.1133
      2 C          62.9515   86.4586   16.3074 C.ar    1  UNL1        0.0189
      3 C          63.2054   87.8740   16.7345 C.ar    1  UNL1        0.0041
      4 C          63.9071   88.8225   15.8082 C.ar    1  UNL1        0.0333
      5 C          64.2934   90.2647   15.9524 C.ar    1  UNL1        0.0138
      6 C          64.9799   90.6892   14.6881 C.ar    1  UNL1        0.1337
      7 O          65.0179   89.5094   13.7625 O.2     1  UNL1       -0.4567
      8 C          64.3548   88.3557   14.4548 C.ar    1  UNL1        0.1459
      9 C          64.1009   86.9404   14.0277 C.ar    1  UNL1        0.0562
     10 C          65.4818   92.0953   14.5429 C.3     1  UNL1        0.1210
     11 C          65.6664   91.1138   13.4238 C.3     1  UNL1        0.0268
     12 C          66.3529   91.5384   12.1595 C.3     1  UNL1        0.0339
     13 C          66.8548   92.9445   12.0144 C.3     1  UNL1        0.1423
     14 O          66.6702   93.9260   13.1336 O.3     1  UNL1       -0.3519
     15 C          65.9837   93.5014   14.3978 C.3     1  UNL1        0.1637
     16 N          65.2972   93.0768   15.6622 N.3     1  UNL1       -0.2917
     17 C          64.6107   92.6522   16.9264 C.3     1  UNL1        0.0737
     18 C          64.1088   91.2462   17.0716 C.3     1  UNL1        0.0463
     19 H          64.7608   93.8575   15.2837 H       1  UNL1        0.1236
     20 O          64.4718   84.5497   13.8272 O.2     1  UNL1       -0.1642
     21 S          63.1452   84.5766   14.5268 S.O2    1  UNL1        0.0276
     22 O          61.8187   84.6034   15.2264 O.2     1  UNL1       -0.1642
     23 C          62.8913   83.1613   14.0997 C.ar    1  UNL1        0.1125
     24 C          63.9213   82.4241   13.2962 C.ar    1  UNL1        0.0189
     25 C          63.6674   81.0088   12.8691 C.ar    1  UNL1        0.0036
     26 C          62.3834   80.3307   13.2454 C.ar    1  UNL1        0.0297
     27 C          61.3534   81.0679   14.0489 C.ar    1  UNL1        0.1414
     28 F          60.0694   80.3898   14.4252 F       1  UNL1       -0.2041
     29 C          61.6073   82.4832   14.4760 C.ar    1  UNL1        0.0484
@<TRIPOS>BOND
     1    20    21    2
     2    21    22    2
     3    21    23    1
     4    23    24   ar
     5    24    25   ar
     6    25    26   ar
     7    26    27   ar
     8    27    28    1
     9    27    29   ar
    10    21     1    1
    11     1     2   ar
    12     2     3   ar
    13     3     4   ar
    14     4     5   ar
    15     5     6   ar
    16     6     7   ar
    17     7     8   ar
    18     8     9   ar
    19     6    10    1
    20    10    11    1
    21    11    12    1
    22    12    13    1
    23    13    14    1
    24    14    15    1
    25    10    16    1
    26    16    17    1
    27    17    18    1
    28    29    23   ar
    29     9     1   ar
    30    15    10    1
    31     8     4   ar
    32    18     5    1
    33    16    19    1
@<TRIPOS>MOLECULE
*****
 29 33 0 0 0
SMALL
GASTEIGER

@<TRIPOS>ATOM
      1 C          63.1949   84.6428   14.1750 C.ar    1  UNL1        0.1133
      2 C          63.8510   85.1020   15.4434 C.ar    1  UNL1        0.0189
      3 C          64.2902   86.5292   15.5865 C.ar    1  UNL1        0.0041
      4 C          64.0732   87.4971   14.4613 C.ar    1  UNL1        0.0333
      5 C          64.3979   88.9541   14.3140 C.ar    1  UNL1        0.0138
      6 C          63.9424   89.3953   12.9546 C.ar    1  UNL1        0.1337
      7 O          63.3362   88.2111   12.2618 O.2     1  UNL1       -0.4567
      8 C          63.4170   87.0379   13.1930 C.ar    1  UNL1        0.1459
      9 C          62.9779   85.6108   13.0498 C.ar    1  UNL1        0.0562
     10 C          64.1386   90.8185   12.5233 C.3     1  UNL1        0.1210
     11 C          63.4870   89.8366   11.5953 C.3     1  UNL1        0.0268
     12 C          63.0316   90.2779   10.2360 C.3     1  UNL1        0.0339
     13 C          63.2277   91.7011    9.8047 C.3     1  UNL1        0.1423
     14 O          63.8793   92.6830   10.7327 O.3     1  UNL1       -0.3519
     15 C          64.3347   92.2418   12.0921 C.3     1  UNL1        0.1637
     16 N          64.7901   91.8005   13.4515 N.3     1  UNL1       -0.2917
     17 C          65.2456   91.3592   14.8108 C.3     1  UNL1        0.0737
     18 C          65.0494   89.9360   15.2421 C.3     1  UNL1        0.0463
     19 H          64.1216   92.5571   13.5962 H       1  UNL1        0.1236
     20 O          62.4609   83.4520   12.5803 O.2     1  UNL1       -0.1642
     21 S          62.7558   83.2157   14.0319 S.O2    1  UNL1        0.0276
     22 O          63.0507   82.9793   15.4835 O.2     1  UNL1       -0.1642
     23 C          62.3167   81.7886   13.8887 C.ar    1  UNL1        0.1125
     24 C          63.2743   80.7578   13.3686 C.ar    1  UNL1        0.0189
     25 C          62.8352   79.3307   13.2255 C.ar    1  UNL1        0.0036
     26 C          61.4384   78.9344   13.6024 C.ar    1  UNL1        0.0297
     27 C          60.4808   79.9651   14.1225 C.ar    1  UNL1        0.1414
     28 F          59.0841   79.5688   14.4995 F       1  UNL1       -0.2041
     29 C          60.9199   81.3922   14.2657 C.ar    1  UNL1        0.0484
@<TRIPOS>BOND
     1    20    21    2
     2    21    22    2
     3    21    23    1
     4    23    24   ar
     5    24    25   ar
     6    25    26   ar
     7    26    27   ar
     8    27    28    1
     9    27    29   ar
    10    21     1    1
    11     1     2   ar
    12     2     3   ar
    13     3     4   ar
    14     4     5   ar
    15     5     6   ar
    16     6     7   ar
    17     7     8   ar
    18     8     9   ar
    19     6    10    1
    20    10    11    1
    21    11    12    1
    22    12    13    1
    23    13    14    1
    24    14    15    1
    25    10    16    1
    26    16    17    1
    27    17    18    1
    28    29    23   ar
    29     9     1   ar
    30    15    10    1
    31     8     4   ar
    32    18     5    1
    33    16    19    1
@<TRIPOS>MOLECULE
*****
 29 33 0 0 0
SMALL
GASTEIGER

@<TRIPOS>ATOM
      1 C          57.1991   94.5269   -1.7397 C.ar    1  UNL1        0.1133
      2 C          57.1349   93.3506   -0.8110 C.ar    1  UNL1        0.0189
      3 C          58.3725   92.8868   -0.1015 C.ar    1  UNL1        0.0041
      4 C          59.6742   93.5991   -0.3206 C.ar    1  UNL1        0.0333
      5 C          61.0486   93.3721    0.2356 C.ar    1  UNL1        0.0138
      6 C          61.9623   94.4080   -0.3493 C.ar    1  UNL1        0.1337
      7 O          61.1526   95.2752   -1.2670 O.2     1  UNL1       -0.4567
      8 C          59.7384   94.7753   -1.2493 C.ar    1  UNL1        0.1459
      9 C          58.5010   95.2392   -1.9588 C.ar    1  UNL1        0.0562
     10 C          63.4136   94.4277    0.0293 C.3     1  UNL1        0.1210
     11 C          62.8760   95.4438   -0.9342 C.3     1  UNL1        0.0268
     12 C          63.7897   96.4797   -1.5191 C.3     1  UNL1        0.0339
     13 C          65.2410   96.4994   -1.1404 C.3     1  UNL1        0.1423
     14 O          65.7786   95.4833   -0.1769 O.3     1  UNL1       -0.3519
     15 C          64.8649   94.4474    0.4080 C.3     1  UNL1        0.1637
     16 N          63.9512   93.4115    0.9929 N.3     1  UNL1       -0.2917
     17 C          63.0375   92.3757    1.5778 C.3     1  UNL1        0.0737
     18 C          61.5862   92.3559    1.1992 C.3     1  UNL1        0.0463
     19 H          64.3484   93.9299    1.7764 H       1  UNL1        0.1236
     20 O          55.1659   93.9223   -1.7598 O.2     1  UNL1       -0.1642
     21 S          55.9616   94.9907   -2.4492 S.O2    1  UNL1        0.0276
     22 O          56.7574   96.0591   -3.1386 O.2     1  UNL1       -0.1642
     23 C          54.7242   95.4546   -3.1587 C.ar    1  UNL1        0.1125
     24 C          54.7386   95.6421   -4.6469 C.ar    1  UNL1        0.0189
     25 C          53.5012   96.1059   -5.3564 C.ar    1  UNL1        0.0036
     26 C          52.2492   96.3823   -4.5778 C.ar    1  UNL1        0.0297
     27 C          52.2347   96.1948   -3.0896 C.ar    1  UNL1        0.1414
     28 F          50.9828   96.4712   -2.3110 F       1  UNL1       -0.2041
     29 C          53.4722   95.7310   -2.3801 C.ar    1  UNL1        0.0484
@<TRIPOS>BOND
     1    20    21    2
     2    21    22    2
     3    21    23    1
     4    23    24   ar
     5    24    25   ar
     6    25    26   ar
     7    26    27   ar
     8    27    28    1
     9    27    29   ar
    10    21     1    1
    11     1     2   ar
    12     2     3   ar
    13     3     4   ar
    14     4     5   ar
    15     5     6   ar
    16     6     7   ar
    17     7     8   ar
    18     8     9   ar
    19     6    10    1
    20    10    11    1
    21    11    12    1
    22    12    13    1
    23    13    14    1
    24    14    15    1
    25    10    16    1
    26    16    17    1
    27    17    18    1
    28    29    23   ar
    29     9     1   ar
    30    15    10    1
    31     8     4   ar
    32    18     5    1
    33    16    19    1
@<TRIPOS>MOLECULE
*****
 29 33 0 0 0
SMALL
GASTEIGER

@<TRIPOS>ATOM
      1 C          57.4816   94.2359   -1.0101 C.ar    1  UNL1        0.1133
      2 C          57.5724   92.7686   -0.7119 C.ar    1  UNL1        0.0189
      3 C          58.7900   92.2153   -0.0325 C.ar    1  UNL1        0.0041
      4 C          59.9166   93.1293    0.3486 C.ar    1  UNL1        0.0333
      5 C          61.2319   92.8739    1.0231 C.ar    1  UNL1        0.0138
      6 C          61.9539   94.1834    1.1417 C.ar    1  UNL1        0.1337
      7 O          61.0849   95.2480    0.5406 O.2     1  UNL1       -0.4567
      8 C          59.8258   94.5966    0.0504 C.ar    1  UNL1        0.1459
      9 C          58.6083   95.1499   -0.6289 C.ar    1  UNL1        0.0562
     10 C          63.3094   94.2371    1.7818 C.3     1  UNL1        0.1210
     11 C          62.6759   95.4928    1.2604 C.3     1  UNL1        0.0268
     12 C          63.3979   96.8022    1.3790 C.3     1  UNL1        0.0339
     13 C          64.7534   96.8559    2.0191 C.3     1  UNL1        0.1423
     14 O          65.3869   95.6002    2.5406 O.3     1  UNL1       -0.3519
     15 C          64.6649   94.2908    2.4219 C.3     1  UNL1        0.1637
     16 N          63.9429   92.9813    2.3033 N.3     1  UNL1       -0.2917
     17 C          63.2208   91.6720    2.1846 C.3     1  UNL1        0.0737
     18 C          61.8653   91.6182    1.5445 C.3     1  UNL1        0.0463
     19 H          64.1195   93.1312    3.2966 H       1  UNL1        0.1236
     20 O          56.9147   96.1390   -1.7561 O.2     1  UNL1       -0.1642
     21 S          56.2641   94.7892   -1.6895 S.O2    1  UNL1        0.0276
     22 O          55.6134   93.4393   -1.6229 O.2     1  UNL1       -0.1642
     23 C          55.0466   95.3424   -2.3688 C.ar    1  UNL1        0.1125
     24 C          53.8822   95.8175   -1.5511 C.ar    1  UNL1        0.0189
     25 C          52.6647   96.3708   -2.2305 C.ar    1  UNL1        0.0036
     26 C          52.6116   96.4490   -3.7275 C.ar    1  UNL1        0.0297
     27 C          53.7759   95.9739   -4.5452 C.ar    1  UNL1        0.1414
     28 F          53.7227   96.0521   -6.0422 F       1  UNL1       -0.2041
     29 C          54.9934   95.4206   -3.8659 C.ar    1  UNL1        0.0484
@<TRIPOS>BOND
     1    20    21    2
     2    21    22    2
     3    21    23    1
     4    23    24   ar
     5    24    25   ar
     6    25    26   ar
     7    26    27   ar
     8    27    28    1
     9    27    29   ar
    10    21     1    1
    11     1     2   ar
    12     2     3   ar
    13     3     4   ar
    14     4     5   ar
    15     5     6   ar
    16     6     7   ar
    17     7     8   ar
    18     8     9   ar
    19     6    10    1
    20    10    11    1
    21    11    12    1
    22    12    13    1
    23    13    14    1
    24    14    15    1
    25    10    16    1
    26    16    17    1
    27    17    18    1
    28    29    23   ar
    29     9     1   ar
    30    15    10    1
    31     8     4   ar
    32    18     5    1
    33    16    19    1
@<TRIPOS>MOLECULE
*****
 29 33 0 0 0
SMALL
GASTEIGER

@<TRIPOS>ATOM
      1 C          60.3432   87.9363    8.1109 C.ar    1  UNL1        0.1133
      2 C          60.2141   86.4718    7.8132 C.ar    1  UNL1        0.0189
      3 C          60.8209   85.4615    8.7413 C.ar    1  UNL1        0.0041
      4 C          61.5569   85.9157    9.9668 C.ar    1  UNL1        0.0333
      5 C          62.2543   85.1578   11.0573 C.ar    1  UNL1        0.0138
      6 C          62.8144   86.1539   12.0290 C.ar    1  UNL1        0.1337
      7 O          62.4632   87.5274   11.5389 O.2     1  UNL1       -0.4567
      8 C          61.6860   87.3802   10.2645 C.ar    1  UNL1        0.1459
      9 C          61.0792   88.3905    9.3365 C.ar    1  UNL1        0.0562
     10 C          63.5719   85.6815   13.2344 C.3     1  UNL1        0.1210
     11 C          63.3746   87.1500   13.0006 C.3     1  UNL1        0.0268
     12 C          63.9347   88.1460   13.9722 C.3     1  UNL1        0.0339
     13 C          64.6922   87.6736   15.1776 C.3     1  UNL1        0.1423
     14 O          64.8896   86.2052   15.4114 O.3     1  UNL1       -0.3519
     15 C          64.3294   85.2091   14.4398 C.3     1  UNL1        0.1637
     16 N          63.7693   84.2130   13.4682 N.3     1  UNL1       -0.2917
     17 C          63.2091   83.2170   12.4966 C.3     1  UNL1        0.0737
     18 C          62.4516   83.6893   11.2911 C.3     1  UNL1        0.0463
     19 H          63.3573   84.0016   14.3770 H       1  UNL1        0.1236
     20 O          60.1786   90.0511    8.0964 O.2     1  UNL1       -0.1642
     21 S          59.7364   88.9466    7.1830 S.O2    1  UNL1        0.0276
     22 O          59.2942   87.8420    6.2695 O.2     1  UNL1       -0.1642
     23 C          59.1296   89.9568    6.2550 C.ar    1  UNL1        0.1125
     24 C          57.6383   90.0618    6.1322 C.ar    1  UNL1        0.0189
     25 C          57.0315   91.0721    5.2042 C.ar    1  UNL1        0.0036
     26 C          57.9160   91.9774    4.3992 C.ar    1  UNL1        0.0297
     27 C          59.4072   91.8725    4.5220 C.ar    1  UNL1        0.1414
     28 F          60.2917   92.7778    3.7170 F       1  UNL1       -0.2041
     29 C          60.0141   90.8622    5.4500 C.ar    1  UNL1        0.0484
@<TRIPOS>BOND
     1    20    21    2
     2    21    22    2
     3    21    23    1
     4    23    24   ar
     5    24    25   ar
     6    25    26   ar
     7    26    27   ar
     8    27    28    1
     9    27    29   ar
    10    21     1    1
    11     1     2   ar
    12     2     3   ar
    13     3     4   ar
    14     4     5   ar
    15     5     6   ar
    16     6     7   ar
    17     7     8   ar
    18     8     9   ar
    19     6    10    1
    20    10    11    1
    21    11    12    1
    22    12    13    1
    23    13    14    1
    24    14    15    1
    25    10    16    1
    26    16    17    1
    27    17    18    1
    28    29    23   ar
    29     9     1   ar
    30    15    10    1
    31     8     4   ar
    32    18     5    1
    33    16    19    1
