@<TRIPOS>MOLECULE
*****
 41 44 0 0 0
SMALL
GASTEIGER

@<TRIPOS>ATOM
      1 C          62.2464   90.7174   10.5143 C.3     1  UNL1        0.1001
      2 C          60.8441   90.2007   10.6434 C.3     1  UNL1        0.1443
      3 O          60.0416   90.5083   11.8728 O.3     1  UNL1       -0.3813
      4 H          60.5734   91.0467   12.4796 H       1  UNL1        0.2105
      5 C          60.2443   89.3763    9.5431 C.3     1  UNL1        0.1041
      6 N          60.0932   89.9567    8.1682 N.am    1  UNL1       -0.3012
      7 C          59.2560   89.2500    7.1437 C.2     1  UNL1        0.2527
      8 O          58.5700   87.9628    7.4940 O.2     1  UNL1       -0.2724
      9 H          60.5434   90.8015    7.9383 H       1  UNL1        0.1495
     10 C          59.1049   89.8303    5.7688 C.3     1  UNL1        0.2269
     11 O          58.6873   91.2612    5.6005 O.3     1  UNL1       -0.3418
     12 C          57.4308   91.5926    4.8511 C.3     1  UNL1        0.1748
     13 C          59.7957   87.9716    9.8177 C.3     1  UNL1        0.0484
     14 C          62.8340   84.6752   10.2084 C.ar    1  UNL1        0.0426
     15 C          62.4513   85.1853    8.8507 C.ar    1  UNL1        0.0079
     16 C          61.4386   86.2841    8.7205 C.ar    1  UNL1       -0.0036
     17 C          60.8085   86.8727    9.9480 C.ar    1  UNL1       -0.0204
     18 C          61.1912   86.3625   11.3056 C.ar    1  UNL1       -0.0036
     19 C          62.2039   85.2638   11.4358 C.ar    1  UNL1        0.0079
     20 C          64.8594   82.4775   10.4689 C.1     1  UNL1       -0.0092
     21 C          63.8467   83.5763   10.3386 C.1     1  UNL1       -0.0512
     22 N          63.3655   90.0410   11.2492 N.3     1  UNL1       -0.2928
     23 H          64.1869   90.0924   10.6466 H       1  UNL1        0.1236
     24 C          63.7868   90.5414   12.5991 C.3     1  UNL1        0.0849
     25 C          63.2653   89.8801   13.8404 C.3     1  UNL1        0.0604
     26 C          63.6866   90.3804   15.1902 C.3     1  UNL1        0.1363
     27 C          62.7609   89.2342   15.4725 C.3     1  UNL1        0.0402
     28 C          62.9491   89.4451   16.9457 C.3     1  UNL1        0.0072
     29 C          63.8747   90.5913   16.6634 C.3     1  UNL1        0.0402
     30 O          64.6293   91.5420   15.2989 O.3     1  UNL1       -0.4676
     31 C          65.1508   92.2033   14.0576 C.ar    1  UNL1        0.2216
     32 N          66.0936   93.3650   14.1663 N.ar    1  UNL1       -0.2107
     33 C          66.6151   94.0263   12.9250 C.ar    1  UNL1        0.0977
     34 C          66.1938   93.5259   11.5751 C.ar    1  UNL1       -0.0031
     35 C          65.2511   92.3643   11.4665 C.ar    1  UNL1       -0.0011
     36 C          64.7296   91.7030   12.7077 C.ar    1  UNL1        0.0449
     37 C          66.7153   94.1872   10.3338 C.3     1  UNL1        0.0279
     38 C          67.6600   93.4499    9.4316 C.3     1  UNL1        0.0041
     39 C          67.8145   92.3780   10.4694 C.3     1  UNL1        0.0003
     40 C          67.5056   94.5220    8.3938 C.3     1  UNL1        0.0003
     41 C          68.6048   92.7126    8.5295 C.3     1  UNL1        0.0003
@<TRIPOS>BOND
     1    20    21    3
     2    21    14    1
     3    14    15   ar
     4    15    16   ar
     5    16    17   ar
     6    17    13    1
     7     5    13    1
     8     5     6    1
     9     6     7   am
    10     7     8    2
    11     7    10    1
    12    10    11    1
    13    11    12    1
    14     5     2    1
    15     2     3    1
    16     2     1    1
    17     1    22    1
    18    24    22    1
    19    24    25    1
    20    25    26    1
    21    26    27    1
    22    27    28    1
    23    28    29    1
    24    26    30    1
    25    30    31    1
    26    31    32   ar
    27    32    33   ar
    28    33    34   ar
    29    34    37    1
    30    37    38    1
    31    38    39    1
    32    38    40    1
    33    38    41    1
    34    34    35   ar
    35    35    36   ar
    36    17    18   ar
    37    18    19   ar
    38    19    14   ar
    39    36    24    1
    40    29    26    1
    41    36    31   ar
    42     6     9    1
    43     3     4    1
    44    22    23    1
@<TRIPOS>MOLECULE
*****
 41 44 0 0 0
SMALL
GASTEIGER

@<TRIPOS>ATOM
      1 C          64.6333   87.1256   14.5872 C.3     1  UNL1        0.1001
      2 C          64.1088   85.7237   14.6865 C.3     1  UNL1        0.1443
      3 O          64.1649   84.9929   15.9952 O.3     1  UNL1       -0.3813
      4 H          64.5659   85.5650   16.6681 H       1  UNL1        0.2105
      5 C          63.5283   85.0527   13.4770 C.3     1  UNL1        0.1041
      6 N          63.9315   83.6498   13.1316 N.am    1  UNL1       -0.3012
      7 C          63.3138   82.4917   13.8575 C.2     1  UNL1        0.2527
      8 O          62.2927   82.7363   14.9288 O.2     1  UNL1       -0.2724
      9 H          64.6016   83.4892   12.4285 H       1  UNL1        0.1495
     10 C          63.7170   81.0888   13.5121 C.3     1  UNL1        0.2269
     11 O          63.0199   80.3599   12.4017 O.3     1  UNL1       -0.3418
     12 C          63.0861   80.8891   10.9997 C.3     1  UNL1        0.1748
     13 C          62.5447   85.7847   12.6130 C.3     1  UNL1        0.0484
     14 C          62.4246   85.0044    8.1828 C.ar    1  UNL1        0.0426
     15 C          63.4187   84.2840    9.0445 C.ar    1  UNL1        0.0079
     16 C          63.4587   84.5441   10.5212 C.ar    1  UNL1       -0.0036
     17 C          62.5046   85.5246   11.1362 C.ar    1  UNL1       -0.0204
     18 C          61.5105   86.2451   10.2745 C.ar    1  UNL1       -0.0036
     19 C          61.4705   85.9850    8.7978 C.ar    1  UNL1        0.0079
     20 C          62.3445   84.4844    5.2293 C.1     1  UNL1       -0.0092
     21 C          62.3846   84.7444    6.7060 C.1     1  UNL1       -0.0512
     22 N          63.7008   88.2887   14.7528 N.3     1  UNL1       -0.2928
     23 H          64.0156   88.8037   15.5750 H       1  UNL1        0.1236
     24 C          63.5475   89.2905   13.6468 C.3     1  UNL1        0.0849
     25 C          62.3680   89.2134   12.7234 C.3     1  UNL1        0.0604
     26 C          62.2146   90.2151   11.6174 C.3     1  UNL1        0.1363
     27 C          61.0242   89.3113   11.4904 C.3     1  UNL1        0.0402
     28 C          60.5464   90.1062   10.3114 C.3     1  UNL1        0.0072
     29 C          61.7369   91.0100   10.4384 C.3     1  UNL1        0.0402
     30 O          63.2408   91.2938   11.4350 O.3     1  UNL1       -0.4676
     31 C          64.4203   91.3708   12.3585 C.ar    1  UNL1        0.2216
     32 N          65.4465   92.4496   12.1760 N.ar    1  UNL1       -0.2107
     33 C          66.6261   92.5266   13.0994 C.ar    1  UNL1        0.0977
     34 C          66.7794   91.5249   14.2054 C.ar    1  UNL1       -0.0031
     35 C          65.7532   90.4462   14.3878 C.ar    1  UNL1       -0.0011
     36 C          64.5737   90.3691   13.4644 C.ar    1  UNL1        0.0449
     37 C          67.9589   91.6019   15.1288 C.3     1  UNL1        0.0279
     38 C          68.4602   92.9365   15.5955 C.3     1  UNL1        0.0041
     39 C          67.2260   93.1079   16.4306 C.3     1  UNL1        0.0003
     40 C          69.6944   92.7649   14.7604 C.3     1  UNL1        0.0003
     41 C          68.9613   94.2710   16.0622 C.3     1  UNL1        0.0003
@<TRIPOS>BOND
     1    20    21    3
     2    21    14    1
     3    14    15   ar
     4    15    16   ar
     5    16    17   ar
     6    17    13    1
     7     5    13    1
     8     5     6    1
     9     6     7   am
    10     7     8    2
    11     7    10    1
    12    10    11    1
    13    11    12    1
    14     5     2    1
    15     2     3    1
    16     2     1    1
    17     1    22    1
    18    24    22    1
    19    24    25    1
    20    25    26    1
    21    26    27    1
    22    27    28    1
    23    28    29    1
    24    26    30    1
    25    30    31    1
    26    31    32   ar
    27    32    33   ar
    28    33    34   ar
    29    34    37    1
    30    37    38    1
    31    38    39    1
    32    38    40    1
    33    38    41    1
    34    34    35   ar
    35    35    36   ar
    36    17    18   ar
    37    18    19   ar
    38    19    14   ar
    39    36    24    1
    40    29    26    1
    41    36    31   ar
    42     6     9    1
    43     3     4    1
    44    22    23    1
@<TRIPOS>MOLECULE
*****
 41 44 0 0 0
SMALL
GASTEIGER

@<TRIPOS>ATOM
      1 C          61.7698   90.5146   11.0328 C.3     1  UNL1        0.1001
      2 C          61.0150   89.3620   11.6261 C.3     1  UNL1        0.1443
      3 O          59.9789   89.6083   12.6825 O.3     1  UNL1       -0.3813
      4 H          59.9223   90.5594   12.8644 H       1  UNL1        0.2105
      5 C          61.2962   87.9633   11.1630 C.3     1  UNL1        0.1041
      6 N          60.2980   87.2419   10.3067 N.am    1  UNL1       -0.3012
      7 C          59.9250   87.7937    8.9627 C.2     1  UNL1        0.2527
      8 O          60.5502   89.0670    8.4749 O.2     1  UNL1       -0.2724
      9 H          59.8877   86.4062   10.6268 H       1  UNL1        0.1495
     10 C          58.9269   87.0722    8.1064 C.3     1  UNL1        0.2269
     11 O          59.3639   85.9145    7.2586 O.3     1  UNL1       -0.3418
     12 C          60.7974   85.4730    7.2735 C.3     1  UNL1        0.1748
     13 C          62.5755   87.2861   11.5561 C.3     1  UNL1        0.0484
     14 C          62.6313   82.8519   12.3208 C.ar    1  UNL1        0.0426
     15 C          62.7745   83.3736   10.9217 C.ar    1  UNL1        0.0079
     16 C          62.7559   84.8516   10.6669 C.ar    1  UNL1       -0.0036
     17 C          62.5941   85.8080   11.8110 C.ar    1  UNL1       -0.0204
     18 C          62.4509   85.2864   13.2101 C.ar    1  UNL1       -0.0036
     19 C          62.4695   83.8083   13.4649 C.ar    1  UNL1        0.0079
     20 C          62.6684   79.8958   12.8307 C.1     1  UNL1       -0.0092
     21 C          62.6499   81.3738   12.5757 C.1     1  UNL1       -0.0512
     22 N          63.2566   90.4257   10.8556 N.3     1  UNL1       -0.2928
     23 H          63.4379   90.4855    9.8537 H       1  UNL1        0.1236
     24 C          64.1523   91.4301   11.5184 C.3     1  UNL1        0.0849
     25 C          64.8523   92.4697   10.6942 C.3     1  UNL1        0.0604
     26 C          65.7479   93.4741   11.3569 C.3     1  UNL1        0.1363
     27 C          65.7974   93.8136    9.8966 C.3     1  UNL1        0.0402
     28 C          66.7380   94.9444   10.1913 C.3     1  UNL1        0.0072
     29 C          66.6885   94.6049   11.6516 C.3     1  UNL1        0.0402
     30 O          65.9435   93.4388   12.8436 O.3     1  UNL1       -0.4676
     31 C          65.2435   92.3992   13.6677 C.ar    1  UNL1        0.2216
     32 N          65.4391   92.3639   15.1545 N.ar    1  UNL1       -0.2107
     33 C          64.7391   91.3243   15.9787 C.ar    1  UNL1        0.0977
     34 C          63.8435   90.3199   15.3160 C.ar    1  UNL1       -0.0031
     35 C          63.6479   90.3552   13.8292 C.ar    1  UNL1       -0.0011
     36 C          64.3479   91.3948   13.0051 C.ar    1  UNL1        0.0449
     37 C          63.1434   89.2803   16.1401 C.3     1  UNL1        0.0279
     38 C          63.5893   87.8494   16.0788 C.3     1  UNL1        0.0041
     39 C          64.2981   88.1257   14.7860 C.3     1  UNL1        0.0003
     40 C          62.8804   87.5731   17.3716 C.3     1  UNL1        0.0003
     41 C          64.0351   86.4185   16.0174 C.3     1  UNL1        0.0003
@<TRIPOS>BOND
     1    20    21    3
     2    21    14    1
     3    14    15   ar
     4    15    16   ar
     5    16    17   ar
     6    17    13    1
     7     5    13    1
     8     5     6    1
     9     6     7   am
    10     7     8    2
    11     7    10    1
    12    10    11    1
    13    11    12    1
    14     5     2    1
    15     2     3    1
    16     2     1    1
    17     1    22    1
    18    24    22    1
    19    24    25    1
    20    25    26    1
    21    26    27    1
    22    27    28    1
    23    28    29    1
    24    26    30    1
    25    30    31    1
    26    31    32   ar
    27    32    33   ar
    28    33    34   ar
    29    34    37    1
    30    37    38    1
    31    38    39    1
    32    38    40    1
    33    38    41    1
    34    34    35   ar
    35    35    36   ar
    36    17    18   ar
    37    18    19   ar
    38    19    14   ar
    39    36    24    1
    40    29    26    1
    41    36    31   ar
    42     6     9    1
    43     3     4    1
    44    22    23    1
@<TRIPOS>MOLECULE
*****
 41 44 0 0 0
SMALL
GASTEIGER

@<TRIPOS>ATOM
      1 C          62.7603   88.3212   11.2244 C.3     1  UNL1        0.1001
      2 C          61.5006   87.7486   10.6453 C.3     1  UNL1        0.1443
      3 O          60.2055   87.8793   11.3907 O.3     1  UNL1       -0.3813
      4 H          60.3573   88.3566   12.2213 H       1  UNL1        0.2105
      5 C          61.5360   87.0453    9.3209 C.3     1  UNL1        0.1041
      6 N          60.5073   87.3614    8.2761 N.am    1  UNL1       -0.3012
      7 C          59.9971   88.7639    8.1260 C.2     1  UNL1        0.2527
      8 O          60.5157   89.8504    9.0208 O.2     1  UNL1       -0.2724
      9 H          60.1669   86.6483    7.6888 H       1  UNL1        0.1495
     10 C          58.9684   89.0800    7.0811 C.3     1  UNL1        0.2269
     11 O          59.3496   89.8808    5.8713 O.3     1  UNL1       -0.3418
     12 C          58.4922   91.0308    5.4325 C.3     1  UNL1        0.1748
     13 C          62.6002   86.0258    9.0414 C.3     1  UNL1        0.0484
     14 C          63.2726   82.6290   11.9153 C.ar    1  UNL1        0.0426
     15 C          63.8983   82.5933   10.5525 C.ar    1  UNL1        0.0079
     16 C          63.6741   83.7256    9.5946 C.ar    1  UNL1       -0.0036
     17 C          62.8244   84.8935    9.9994 C.ar    1  UNL1       -0.0204
     18 C          62.1987   84.9291   11.3622 C.ar    1  UNL1       -0.0036
     19 C          62.4229   83.7969   12.3201 C.ar    1  UNL1        0.0079
     20 C          63.7208   80.3644   13.8313 C.1     1  UNL1       -0.0092
     21 C          63.4967   81.4967   12.8733 C.1     1  UNL1       -0.0512
     22 N          62.9331   89.8081   11.3210 N.3     1  UNL1       -0.2928
     23 H          62.0105   90.2212   11.1847 H       1  UNL1        0.1236
     24 C          63.5006   90.4177   12.5685 C.3     1  UNL1        0.0849
     25 C          63.1248   89.8649   13.9114 C.3     1  UNL1        0.0604
     26 C          63.6922   90.4745   15.1589 C.3     1  UNL1        0.1363
     27 C          62.8097   89.3602   15.6380 C.3     1  UNL1        0.0402
     28 C          63.1607   89.6927   17.0580 C.3     1  UNL1        0.0072
     29 C          64.0432   90.8071   16.5789 C.3     1  UNL1        0.0402
     30 O          64.6355   91.6369   15.0636 O.3     1  UNL1       -0.4676
     31 C          65.0113   92.1896   13.7208 C.ar    1  UNL1        0.2216
     32 N          65.9546   93.3521   13.6255 N.ar    1  UNL1       -0.2107
     33 C          66.3305   93.9049   12.2827 C.ar    1  UNL1        0.0977
     34 C          65.7630   93.2952   11.0351 C.ar    1  UNL1       -0.0031
     35 C          64.8197   92.1329   11.1304 C.ar    1  UNL1       -0.0011
     36 C          64.4439   91.5801   12.4732 C.ar    1  UNL1        0.0449
     37 C          66.1388   93.8480    9.6923 C.3     1  UNL1        0.0279
     38 C          66.7033   95.2334    9.5828 C.3     1  UNL1        0.0041
     39 C          65.3921   95.8035   10.0362 C.3     1  UNL1        0.0003
     40 C          68.0146   94.6633    9.1294 C.3     1  UNL1        0.0003
     41 C          67.2678   96.6188    9.4734 C.3     1  UNL1        0.0003
@<TRIPOS>BOND
     1    20    21    3
     2    21    14    1
     3    14    15   ar
     4    15    16   ar
     5    16    17   ar
     6    17    13    1
     7     5    13    1
     8     5     6    1
     9     6     7   am
    10     7     8    2
    11     7    10    1
    12    10    11    1
    13    11    12    1
    14     5     2    1
    15     2     3    1
    16     2     1    1
    17     1    22    1
    18    24    22    1
    19    24    25    1
    20    25    26    1
    21    26    27    1
    22    27    28    1
    23    28    29    1
    24    26    30    1
    25    30    31    1
    26    31    32   ar
    27    32    33   ar
    28    33    34   ar
    29    34    37    1
    30    37    38    1
    31    38    39    1
    32    38    40    1
    33    38    41    1
    34    34    35   ar
    35    35    36   ar
    36    17    18   ar
    37    18    19   ar
    38    19    14   ar
    39    36    24    1
    40    29    26    1
    41    36    31   ar
    42     6     9    1
    43     3     4    1
    44    22    23    1
@<TRIPOS>MOLECULE
*****
 41 44 0 0 0
SMALL
GASTEIGER

@<TRIPOS>ATOM
      1 C          62.0962   90.9173   11.9431 C.3     1  UNL1        0.1001
      2 C          63.2671   91.3883   11.1322 C.3     1  UNL1        0.1443
      3 O          63.1295   91.5657    9.6491 O.3     1  UNL1       -0.3813
      4 H          62.2271   91.3347    9.3782 H       1  UNL1        0.2105
      5 C          64.5754   91.6819   11.8045 C.3     1  UNL1        0.1041
      6 N          65.8336   91.7667   10.9923 N.am    1  UNL1       -0.3012
      7 C          66.4086   93.1059   10.6377 C.2     1  UNL1        0.2527
      8 O          65.7253   94.3605   11.0953 O.2     1  UNL1       -0.2724
      9 H          66.2820   90.9433   10.6920 H       1  UNL1        0.1495
     10 C          67.6668   93.1907    9.8255 C.3     1  UNL1        0.2269
     11 O          68.2572   94.5295    9.4948 O.3     1  UNL1       -0.3418
     12 C          67.5938   95.4115    8.4790 C.3     1  UNL1        0.1748
     13 C          64.6255   91.8908   13.2890 C.3     1  UNL1        0.0484
     14 C          63.4943   88.5403   16.0719 C.ar    1  UNL1        0.0426
     15 C          64.1668   88.2359   14.7662 C.ar    1  UNL1        0.0079
     16 C          64.5439   89.3528   13.8386 C.ar    1  UNL1       -0.0036
     17 C          64.2484   90.7739   14.2167 C.ar    1  UNL1       -0.0204
     18 C          63.5758   91.0783   15.5225 C.ar    1  UNL1       -0.0036
     19 C          63.1987   89.9614   16.4501 C.ar    1  UNL1        0.0079
     20 C          62.7400   86.3066   17.9272 C.1     1  UNL1       -0.0092
     21 C          63.1171   87.4234   16.9996 C.1     1  UNL1       -0.0512
     22 N          61.8667   89.4490   12.1462 N.3     1  UNL1       -0.2928
     23 H          61.1197   89.3603   12.8351 H       1  UNL1        0.1236
     24 C          61.4881   88.5810   10.9829 C.3     1  UNL1        0.0849
     25 C          60.7098   89.1587    9.8381 C.3     1  UNL1        0.0604
     26 C          60.3313   88.2908    8.6747 C.3     1  UNL1        0.1363
     27 C          59.7723   89.6439    8.3478 C.3     1  UNL1        0.0402
     28 C          59.2306   89.1079    7.0557 C.3     1  UNL1        0.0072
     29 C          59.7896   87.7548    7.3827 C.3     1  UNL1        0.0402
     30 O          60.7310   86.8452    8.6562 O.3     1  UNL1       -0.4676
     31 C          61.5093   86.2675    9.8010 C.ar    1  UNL1        0.2216
     32 N          61.9090   84.8218    9.7824 N.ar    1  UNL1       -0.2107
     33 C          62.6873   84.2441   10.9272 C.ar    1  UNL1        0.0977
     34 C          63.0659   85.1121   12.0905 C.ar    1  UNL1       -0.0031
     35 C          62.6661   86.5577   12.1091 C.ar    1  UNL1       -0.0011
     36 C          61.8878   87.1354   10.9643 C.ar    1  UNL1        0.0449
     37 C          63.8441   84.5344   13.2353 C.3     1  UNL1        0.0279
     38 C          63.3609   83.2893   13.9183 C.3     1  UNL1        0.0041
     39 C          64.3322   82.4733   13.1179 C.3     1  UNL1        0.0003
     40 C          62.3895   84.1054   14.7187 C.3     1  UNL1        0.0003
     41 C          62.8777   82.0443   14.6012 C.3     1  UNL1        0.0003
@<TRIPOS>BOND
     1    20    21    3
     2    21    14    1
     3    14    15   ar
     4    15    16   ar
     5    16    17   ar
     6    17    13    1
     7     5    13    1
     8     5     6    1
     9     6     7   am
    10     7     8    2
    11     7    10    1
    12    10    11    1
    13    11    12    1
    14     5     2    1
    15     2     3    1
    16     2     1    1
    17     1    22    1
    18    24    22    1
    19    24    25    1
    20    25    26    1
    21    26    27    1
    22    27    28    1
    23    28    29    1
    24    26    30    1
    25    30    31    1
    26    31    32   ar
    27    32    33   ar
    28    33    34   ar
    29    34    37    1
    30    37    38    1
    31    38    39    1
    32    38    40    1
    33    38    41    1
    34    34    35   ar
    35    35    36   ar
    36    17    18   ar
    37    18    19   ar
    38    19    14   ar
    39    36    24    1
    40    29    26    1
    41    36    31   ar
    42     6     9    1
    43     3     4    1
    44    22    23    1
@<TRIPOS>MOLECULE
*****
 41 44 0 0 0
SMALL
GASTEIGER

@<TRIPOS>ATOM
      1 C          61.7521   89.9121   11.6718 C.3     1  UNL1        0.1001
      2 C          60.4821   90.1559   10.9118 C.3     1  UNL1        0.1443
      3 O          59.5435   91.2415   11.3482 O.3     1  UNL1       -0.3813
      4 H          59.9049   91.6860   12.1310 H       1  UNL1        0.2105
      5 C          60.1507   89.3142    9.7153 C.3     1  UNL1        0.1041
      6 N          60.2391   89.9010    8.3377 N.am    1  UNL1       -0.3012
      7 C          59.4611   89.2892    7.2106 C.2     1  UNL1        0.2527
      8 O          58.5947   88.0906    7.4610 O.2     1  UNL1       -0.2724
      9 H          60.8077   90.6877    8.1733 H       1  UNL1        0.1495
     10 C          59.5495   89.8760    5.8329 C.3     1  UNL1        0.2269
     11 O          58.6269   90.9884    5.4310 O.3     1  UNL1       -0.3418
     12 C          59.1577   92.1625    4.6630 C.3     1  UNL1        0.1748
     13 C          59.7310   87.8856    9.8965 C.3     1  UNL1        0.0484
     14 C          62.8413   84.6477   10.1998 C.ar    1  UNL1        0.0426
     15 C          62.2179   85.2077   11.4438 C.ar    1  UNL1        0.0079
     16 C          61.1812   86.2870   11.3427 C.ar    1  UNL1       -0.0036
     17 C          60.7678   86.8062    9.9975 C.ar    1  UNL1       -0.0204
     18 C          61.3911   86.2462    8.7535 C.ar    1  UNL1       -0.0036
     19 C          62.4279   85.1669    8.8546 C.ar    1  UNL1        0.0079
     20 C          64.9149   82.4891   10.4019 C.1     1  UNL1       -0.0092
     21 C          63.8781   83.5683   10.3008 C.1     1  UNL1       -0.0512
     22 N          63.0754   90.2395   11.0460 N.3     1  UNL1       -0.2928
     23 H          62.8801   90.5745   10.1025 H       1  UNL1        0.1236
     24 C          63.9781   91.2518   11.6866 C.3     1  UNL1        0.0849
     25 C          64.6542   92.2931   10.8447 C.3     1  UNL1        0.0604
     26 C          65.5569   93.3054   11.4853 C.3     1  UNL1        0.1363
     27 C          65.5738   93.6402   10.0232 C.3     1  UNL1        0.0402
     28 C          66.5129   94.7780   10.2947 C.3     1  UNL1        0.0072
     29 C          66.4960   94.4431   11.7568 C.3     1  UNL1        0.0402
     30 O          65.7835   93.2764   12.9678 O.3     1  UNL1       -0.4676
     31 C          65.1075   92.2351   13.8097 C.ar    1  UNL1        0.2216
     32 N          65.3342   92.2062   15.2922 N.ar    1  UNL1       -0.2107
     33 C          64.6582   91.1650   16.1341 C.ar    1  UNL1        0.0977
     34 C          63.7554   90.1526   15.4934 C.ar    1  UNL1       -0.0031
     35 C          63.5288   90.1816   14.0110 C.ar    1  UNL1       -0.0011
     36 C          64.2048   91.2229   13.1691 C.ar    1  UNL1        0.0449
     37 C          63.0794   89.1114   16.3353 C.3     1  UNL1        0.0279
     38 C          63.4835   87.6718   16.2156 C.3     1  UNL1        0.0041
     39 C          64.2339   87.9873   14.9557 C.3     1  UNL1        0.0003
     40 C          62.7331   87.3563   17.4755 C.3     1  UNL1        0.0003
     41 C          63.8877   86.2322   16.0958 C.3     1  UNL1        0.0003
@<TRIPOS>BOND
     1    20    21    3
     2    21    14    1
     3    14    15   ar
     4    15    16   ar
     5    16    17   ar
     6    17    13    1
     7     5    13    1
     8     5     6    1
     9     6     7   am
    10     7     8    2
    11     7    10    1
    12    10    11    1
    13    11    12    1
    14     5     2    1
    15     2     3    1
    16     2     1    1
    17     1    22    1
    18    24    22    1
    19    24    25    1
    20    25    26    1
    21    26    27    1
    22    27    28    1
    23    28    29    1
    24    26    30    1
    25    30    31    1
    26    31    32   ar
    27    32    33   ar
    28    33    34   ar
    29    34    37    1
    30    37    38    1
    31    38    39    1
    32    38    40    1
    33    38    41    1
    34    34    35   ar
    35    35    36   ar
    36    17    18   ar
    37    18    19   ar
    38    19    14   ar
    39    36    24    1
    40    29    26    1
    41    36    31   ar
    42     6     9    1
    43     3     4    1
    44    22    23    1
@<TRIPOS>MOLECULE
*****
 41 44 0 0 0
SMALL
GASTEIGER

@<TRIPOS>ATOM
      1 C          64.3005   86.8890   14.5725 C.3     1  UNL1        0.1001
      2 C          63.7313   85.6490   15.1959 C.3     1  UNL1        0.1443
      3 O          63.3093   85.6591   16.6353 O.3     1  UNL1       -0.3813
      4 H          63.4706   86.5378   17.0133 H       1  UNL1        0.2105
      5 C          63.5840   84.3991   14.3799 C.3     1  UNL1        0.1041
      6 N          62.4876   83.4242   14.6924 N.am    1  UNL1       -0.3012
      7 C          62.6556   81.9727   14.3537 C.2     1  UNL1        0.2527
      8 O          63.9199   81.4959   13.7023 O.2     1  UNL1       -0.2724
      9 H          61.6578   83.7371   15.1199 H       1  UNL1        0.1495
     10 C          61.5592   80.9979   14.6662 C.3     1  UNL1        0.2269
     11 O          60.2628   81.0608   13.9141 O.3     1  UNL1       -0.3418
     12 C          59.1187   80.1780   14.3165 C.3     1  UNL1        0.1748
     13 C          64.5331   84.1239   13.2515 C.3     1  UNL1        0.0484
     14 C          63.1119   84.4235    8.9923 C.ar    1  UNL1        0.0426
     15 C          64.1435   83.4017    9.3686 C.ar    1  UNL1        0.0079
     16 C          64.6173   83.3019   10.7883 C.ar    1  UNL1       -0.0036
     17 C          64.0593   84.2238   11.8317 C.ar    1  UNL1       -0.0204
     18 C          63.0276   85.2456   11.4554 C.ar    1  UNL1       -0.0036
     19 C          62.5539   85.3454   10.0357 C.ar    1  UNL1        0.0079
     20 C          62.1643   84.6232    6.1529 C.1     1  UNL1       -0.0092
     21 C          62.6381   84.5233    7.5726 C.1     1  UNL1       -0.0512
     22 N          63.6743   88.2234   14.8501 N.3     1  UNL1       -0.2928
     23 H          63.8133   88.4131   15.8426 H       1  UNL1        0.1236
     24 C          64.1410   89.4401   14.1072 C.3     1  UNL1        0.0849
     25 C          65.1556   90.3543   14.7275 C.3     1  UNL1        0.0604
     26 C          65.6224   91.5709   13.9847 C.3     1  UNL1        0.1363
     27 C          66.3730   91.5972   15.2832 C.3     1  UNL1        0.0402
     28 C          67.0573   92.8638   14.8620 C.3     1  UNL1        0.0072
     29 C          66.3067   92.8376   13.5635 C.3     1  UNL1        0.0402
     30 O          65.0745   91.8734   12.6215 O.3     1  UNL1       -0.4676
     31 C          64.0599   90.9592   12.0012 C.ar    1  UNL1        0.2216
     32 N          63.5120   91.2617   10.6379 N.ar    1  UNL1       -0.2107
     33 C          62.4974   90.3475   10.0176 C.ar    1  UNL1        0.0977
     34 C          62.0307   89.1308   10.7605 C.ar    1  UNL1       -0.0031
     35 C          62.5785   88.8284   12.1237 C.ar    1  UNL1       -0.0011
     36 C          63.5931   89.7426   12.7440 C.ar    1  UNL1        0.0449
     37 C          61.0160   88.2166   10.1402 C.3     1  UNL1        0.0279
     38 C          60.2459   88.6607    8.9319 C.3     1  UNL1        0.0041
     39 C          60.6056   87.3830    8.2332 C.3     1  UNL1        0.0003
     40 C          59.8863   89.9384    9.6307 C.3     1  UNL1        0.0003
     41 C          59.4759   89.1046    7.7237 C.3     1  UNL1        0.0003
@<TRIPOS>BOND
     1    20    21    3
     2    21    14    1
     3    14    15   ar
     4    15    16   ar
     5    16    17   ar
     6    17    13    1
     7     5    13    1
     8     5     6    1
     9     6     7   am
    10     7     8    2
    11     7    10    1
    12    10    11    1
    13    11    12    1
    14     5     2    1
    15     2     3    1
    16     2     1    1
    17     1    22    1
    18    24    22    1
    19    24    25    1
    20    25    26    1
    21    26    27    1
    22    27    28    1
    23    28    29    1
    24    26    30    1
    25    30    31    1
    26    31    32   ar
    27    32    33   ar
    28    33    34   ar
    29    34    37    1
    30    37    38    1
    31    38    39    1
    32    38    40    1
    33    38    41    1
    34    34    35   ar
    35    35    36   ar
    36    17    18   ar
    37    18    19   ar
    38    19    14   ar
    39    36    24    1
    40    29    26    1
    41    36    31   ar
    42     6     9    1
    43     3     4    1
    44    22    23    1
@<TRIPOS>MOLECULE
*****
 41 44 0 0 0
SMALL
GASTEIGER

@<TRIPOS>ATOM
      1 C          61.6602   89.7312   10.8929 C.3     1  UNL1        0.1001
      2 C          61.1573   88.3407   11.1450 C.3     1  UNL1        0.1443
      3 O          59.7800   88.1306   11.7009 O.3     1  UNL1       -0.3813
      4 H          59.3524   88.9903   11.8389 H       1  UNL1        0.2105
      5 C          62.0316   87.1603   10.8413 C.3     1  UNL1        0.1041
      6 N          62.0364   86.5650    9.4645 N.am    1  UNL1       -0.3012
      7 C          60.7520   86.4287    8.7019 C.2     1  UNL1        0.2527
      8 O          59.4627   86.8876    9.3161 O.2     1  UNL1       -0.2724
      9 H          62.8826   86.2638    9.0614 H       1  UNL1        0.1495
     10 C          60.7568   85.8334    7.3251 C.3     1  UNL1        0.2269
     11 O          61.7350   84.7498    6.9799 O.3     1  UNL1       -0.3418
     12 C          62.0432   84.4475    5.5433 C.3     1  UNL1        0.1748
     13 C          62.9011   86.5752   11.9144 C.3     1  UNL1        0.0484
     14 C          62.5854   82.2031   12.9314 C.ar    1  UNL1        0.0426
     15 C          62.7640   82.6302   11.5047 C.ar    1  UNL1        0.0079
     16 C          62.8692   84.0875   11.1657 C.ar    1  UNL1       -0.0036
     17 C          62.7959   85.1178   12.2535 C.ar    1  UNL1       -0.0204
     18 C          62.6173   84.6907   13.6802 C.ar    1  UNL1       -0.0036
     19 C          62.5120   83.2333   14.0192 C.ar    1  UNL1        0.0079
     20 C          62.3749   79.2882   13.6095 C.1     1  UNL1       -0.0092
     21 C          62.4801   80.7456   13.2705 C.1     1  UNL1       -0.0512
     22 N          63.1126   90.0506   11.0893 N.3     1  UNL1       -0.2928
     23 H          63.3490   90.7753   10.4116 H       1  UNL1        0.1236
     24 C          63.6013   90.5299   12.4241 C.3     1  UNL1        0.0849
     25 C          63.1278   89.8611   13.6805 C.3     1  UNL1        0.0604
     26 C          63.6164   90.3404   15.0152 C.3     1  UNL1        0.1363
     27 C          62.6894   89.2030   15.3267 C.3     1  UNL1        0.0402
     28 C          62.9469   89.3945   16.7920 C.3     1  UNL1        0.0072
     29 C          63.8739   90.5319   16.4805 C.3     1  UNL1        0.0402
     30 O          64.5785   91.4885   15.0935 O.3     1  UNL1       -0.4676
     31 C          65.0519   92.1574   13.8371 C.ar    1  UNL1        0.2216
     32 N          66.0141   93.3056   13.9155 N.ar    1  UNL1       -0.2107
     33 C          66.4875   93.9744   12.6591 C.ar    1  UNL1        0.0977
     34 C          65.9988   93.4951   11.3243 C.ar    1  UNL1       -0.0031
     35 C          65.0368   92.3469   11.2460 C.ar    1  UNL1       -0.0011
     36 C          64.5633   91.6781   12.5024 C.ar    1  UNL1        0.0449
     37 C          66.4723   94.1639   10.0679 C.3     1  UNL1        0.0279
     38 C          67.5702   93.5432    9.2558 C.3     1  UNL1        0.0041
     39 C          67.5268   94.7057    8.3089 C.3     1  UNL1        0.0003
     40 C          67.6135   92.3807   10.2028 C.3     1  UNL1        0.0003
     41 C          68.6680   92.9226    8.4437 C.3     1  UNL1        0.0003
@<TRIPOS>BOND
     1    20    21    3
     2    21    14    1
     3    14    15   ar
     4    15    16   ar
     5    16    17   ar
     6    17    13    1
     7     5    13    1
     8     5     6    1
     9     6     7   am
    10     7     8    2
    11     7    10    1
    12    10    11    1
    13    11    12    1
    14     5     2    1
    15     2     3    1
    16     2     1    1
    17     1    22    1
    18    24    22    1
    19    24    25    1
    20    25    26    1
    21    26    27    1
    22    27    28    1
    23    28    29    1
    24    26    30    1
    25    30    31    1
    26    31    32   ar
    27    32    33   ar
    28    33    34   ar
    29    34    37    1
    30    37    38    1
    31    38    39    1
    32    38    40    1
    33    38    41    1
    34    34    35   ar
    35    35    36   ar
    36    17    18   ar
    37    18    19   ar
    38    19    14   ar
    39    36    24    1
    40    29    26    1
    41    36    31   ar
    42     6     9    1
    43     3     4    1
    44    22    23    1
@<TRIPOS>MOLECULE
*****
 41 44 0 0 0
SMALL
GASTEIGER

@<TRIPOS>ATOM
      1 C          60.5711   88.4431   10.6464 C.3     1  UNL1        0.1001
      2 C          60.0901   89.2247    9.4599 C.3     1  UNL1        0.1443
      3 O          59.7604   90.6809    9.6047 O.3     1  UNL1       -0.3813
      4 H          59.9119   90.9570   10.5221 H       1  UNL1        0.2105
      5 C          59.9387   88.5502    8.1288 C.3     1  UNL1        0.1041
      6 N          60.8677   87.4380    7.7416 N.am    1  UNL1       -0.3012
      7 C          60.3183   86.0803    7.4180 C.2     1  UNL1        0.2527
      8 O          58.8399   85.8348    7.4815 O.2     1  UNL1       -0.2724
      9 H          61.8381   87.5991    7.6999 H       1  UNL1        0.1495
     10 C          61.2473   84.9680    7.0308 C.3     1  UNL1        0.2269
     11 O          62.7039   85.0518    7.3794 O.3     1  UNL1       -0.3418
     12 C          63.1458   84.8777    8.8022 C.3     1  UNL1        0.1748
     13 C          58.8584   88.9879    7.1847 C.3     1  UNL1        0.0484
     14 C          59.7249   92.1172    4.0692 C.ar    1  UNL1        0.0426
     15 C          60.8434   91.2955    4.6381 C.ar    1  UNL1        0.0079
     16 C          60.5545   90.2524    5.6766 C.ar    1  UNL1       -0.0036
     17 C          59.1472   90.0311    6.1462 C.ar    1  UNL1       -0.0204
     18 C          58.0287   90.8528    5.5772 C.ar    1  UNL1       -0.0036
     19 C          58.3176   91.8958    4.5387 C.ar    1  UNL1        0.0079
     20 C          60.3026   94.2034    1.9921 C.1     1  UNL1       -0.0092
     21 C          60.0137   93.1603    3.0306 C.1     1  UNL1       -0.0512
     22 N          61.9677   87.8964   10.6683 N.3     1  UNL1       -0.2928
     23 H          62.4837   88.3773    9.9315 H       1  UNL1        0.1236
     24 C          62.7948   88.0012   11.9153 C.3     1  UNL1        0.0849
     25 C          63.2776   89.3416   12.3847 C.3     1  UNL1        0.0604
     26 C          64.1046   89.4464   13.6317 C.3     1  UNL1        0.1363
     27 C          63.9678   90.8559   13.1369 C.3     1  UNL1        0.0402
     28 C          64.7873   91.3420   14.2954 C.3     1  UNL1        0.0072
     29 C          64.9242   89.9325   14.7901 C.3     1  UNL1        0.0402
     30 O          64.4488   88.2108   14.4093 O.3     1  UNL1       -0.4676
     31 C          63.9661   86.8704   13.9399 C.ar    1  UNL1        0.2216
     32 N          64.3104   85.6348   14.7177 N.ar    1  UNL1       -0.2107
     33 C          63.8276   84.2944   14.2483 C.ar    1  UNL1        0.0977
     34 C          63.0005   84.1896   13.0013 C.ar    1  UNL1       -0.0031
     35 C          62.6563   85.4252   12.2236 C.ar    1  UNL1       -0.0011
     36 C          63.1390   86.7656   12.6930 C.ar    1  UNL1        0.0449
     37 C          62.5178   82.8492   12.5319 C.3     1  UNL1        0.0279
     38 C          63.0140   81.5988   13.1956 C.3     1  UNL1        0.0041
     39 C          64.2733   81.6677   12.3836 C.3     1  UNL1        0.0003
     40 C          61.7546   81.5300   14.0076 C.3     1  UNL1        0.0003
     41 C          63.5102   80.3485   13.8591 C.3     1  UNL1        0.0003
@<TRIPOS>BOND
     1    20    21    3
     2    21    14    1
     3    14    15   ar
     4    15    16   ar
     5    16    17   ar
     6    17    13    1
     7     5    13    1
     8     5     6    1
     9     6     7   am
    10     7     8    2
    11     7    10    1
    12    10    11    1
    13    11    12    1
    14     5     2    1
    15     2     3    1
    16     2     1    1
    17     1    22    1
    18    24    22    1
    19    24    25    1
    20    25    26    1
    21    26    27    1
    22    27    28    1
    23    28    29    1
    24    26    30    1
    25    30    31    1
    26    31    32   ar
    27    32    33   ar
    28    33    34   ar
    29    34    37    1
    30    37    38    1
    31    38    39    1
    32    38    40    1
    33    38    41    1
    34    34    35   ar
    35    35    36   ar
    36    17    18   ar
    37    18    19   ar
    38    19    14   ar
    39    36    24    1
    40    29    26    1
    41    36    31   ar
    42     6     9    1
    43     3     4    1
    44    22    23    1
