@<TRIPOS>MOLECULE
*****
 35 37 0 0 0
SMALL
GASTEIGER

@<TRIPOS>ATOM
      1 C          63.6957   86.3366   15.4514 C.ar    1  UNL1        0.0528
      2 C          64.3474   87.4396   14.6713 C.ar    1  UNL1        0.0167
      3 C          64.2556   88.8563   15.1557 C.ar    1  UNL1        0.0505
      4 C          63.5121   89.1699   16.4201 C.ar    1  UNL1        0.0170
      5 C          62.8603   88.0669   17.2002 C.ar    1  UNL1        0.0307
      6 C          62.9521   86.6503   16.7158 C.ar    1  UNL1        0.1402
      7 F          62.3004   85.5472   17.4959 F       1  UNL1       -0.2044
      8 C          63.9377   84.7007   16.4434 C.3     1  UNL1        0.0607
      9 C          63.7875   84.9199   14.9671 C.3     1  UNL1        0.2223
     10 C          63.6054   85.6310   13.6590 C.3     1  UNL1        0.1959
     11 O          63.5672   84.8494   12.3793 O.3     1  UNL1       -0.3357
     12 C          63.7112   83.3566   12.4078 C.3     1  UNL1        0.2740
     13 C          63.8030   81.9399   11.9235 C.3     1  UNL1        0.0512
     14 C          63.8933   82.6454   13.7158 C.2     1  UNL1        0.3217
     15 N          64.0372   81.1526   13.7442 N.pl3   1  UNL1       -0.2480
     16 N          63.9314   83.4270   14.9955 N.2     1  UNL1       -0.0692
     17 H          64.0122   80.6395   12.9044 H       1  UNL1        0.2882
     18 H          64.1567   80.6858   14.6028 H       1  UNL1        0.2882
     19 C          63.5610   83.5757   10.9314 C.3     1  UNL1        0.4305
     20 F          63.4108   83.7949    9.4551 F       1  UNL1       -0.1670
     21 F          62.1796   84.1171   11.1524 F       1  UNL1       -0.1670
     22 F          64.9423   83.0343   10.7106 F       1  UNL1       -0.1670
     23 N          64.9074   89.9594   14.3756 N.am    1  UNL1       -0.2791
     24 C          64.1049   90.7569   13.3907 C.2     1  UNL1        0.2681
     25 O          62.6507   90.4513   13.1859 O.2     1  UNL1       -0.2681
     26 H          65.8619   90.1599   14.5100 H       1  UNL1        0.1552
     27 C          64.7566   91.8599   12.6106 C.ar    1  UNL1        0.1453
     28 N          65.6539   92.8410   13.3053 N.ar    1  UNL1       -0.2377
     29 C          66.3056   93.9441   12.5251 C.ar    1  UNL1        0.1093
     30 C          66.0600   94.0660   11.0504 C.ar    1  UNL1        0.0884
     31 C          65.1628   93.0850   10.3558 C.ar    1  UNL1        0.0249
     32 C          64.5111   91.9819   11.1358 C.ar    1  UNL1        0.0804
     33 CL         63.6139   91.0009   10.4412 Cl      1  UNL1       -0.0805
     34 C          66.7117   95.1691   10.2703 C.1     1  UNL1        0.1020
     35 N          67.3635   96.2722    9.4903 N.1     1  UNL1       -0.1908
@<TRIPOS>BOND
     1     9     8    1
     2     9     1    1
     3     1     2   ar
     4     2     3   ar
     5     3    23    1
     6    23    24   am
     7    24    25    2
     8    24    27    1
     9    27    28   ar
    10    28    29   ar
    11    29    30   ar
    12    30    34    1
    13    34    35    3
    14    30    31   ar
    15    31    32   ar
    16    32    33    1
    17     3     4   ar
    18     4     5   ar
    19     5     6   ar
    20     6     7    1
    21     9    10    1
    22    10    11    1
    23    11    12    1
    24    12    13    1
    25    12    19    1
    26    19    20    1
    27    19    21    1
    28    19    22    1
    29    12    14    1
    30    14    15    1
    31    14    16    2
    32    16     9    1
    33     6     1   ar
    34    32    27   ar
    35    23    26    1
    36    15    17    1
    37    15    18    1
@<TRIPOS>MOLECULE
*****
 35 37 0 0 0
SMALL
GASTEIGER

@<TRIPOS>ATOM
      1 C          63.8917   89.0596   14.6902 C.ar    1  UNL1        0.0528
      2 C          63.9103   87.6701   14.1255 C.ar    1  UNL1        0.0167
      3 C          63.5477   86.5025   14.9944 C.ar    1  UNL1        0.0505
      4 C          63.1665   86.7243   16.4281 C.ar    1  UNL1        0.0170
      5 C          63.1479   88.1137   16.9928 C.ar    1  UNL1        0.0307
      6 C          63.5105   89.2814   16.1239 C.ar    1  UNL1        0.1402
      7 F          63.4920   90.6709   16.6887 F       1  UNL1       -0.2044
      8 C          63.0037   89.7682   13.1321 C.3     1  UNL1        0.0607
      9 C          64.2544   90.2273   13.8213 C.3     1  UNL1        0.2223
     10 C          65.3790   90.2809   14.8123 C.3     1  UNL1        0.1959
     11 O          66.4320   91.3427   14.6951 O.3     1  UNL1       -0.3357
     12 C          66.3603   92.3510   13.5868 C.3     1  UNL1        0.2740
     13 C          66.7229   93.5187   12.7179 C.3     1  UNL1        0.0512
     14 C          65.2356   92.2974   12.5958 C.2     1  UNL1        0.3217
     15 N          65.1638   93.3057   11.4875 N.pl3   1  UNL1       -0.2480
     16 N          64.1826   91.2356   12.7130 N.2     1  UNL1       -0.0692
     17 H          65.8549   94.0026   11.4105 H       1  UNL1        0.2882
     18 H          64.4257   93.2705   10.8371 H       1  UNL1        0.2882
     19 C          67.6110   92.8101   14.2761 C.3     1  UNL1        0.4305
     20 F          68.8616   93.2692   14.9654 F       1  UNL1       -0.1670
     21 F          68.3882   91.7283   13.5864 F       1  UNL1       -0.1670
     22 F          66.8337   93.8918   14.9657 F       1  UNL1       -0.1670
     23 N          63.5662   85.1129   14.4296 N.am    1  UNL1       -0.2791
     24 C          62.8222   84.8080   13.1633 C.2     1  UNL1        0.2681
     25 O          62.0595   85.8927   12.4619 O.2     1  UNL1       -0.2681
     26 H          64.0668   84.4011   14.8900 H       1  UNL1        0.1552
     27 C          62.8407   83.4186   12.5985 C.ar    1  UNL1        0.1453
     28 N          62.4720   82.2515   13.4657 N.ar    1  UNL1       -0.2377
     29 C          62.4906   80.8620   12.9008 C.ar    1  UNL1        0.1093
     30 C          62.8778   80.6396   11.4689 C.ar    1  UNL1        0.0884
     31 C          63.2464   81.8067   10.6017 C.ar    1  UNL1        0.0249
     32 C          63.2279   83.1962   11.1665 C.ar    1  UNL1        0.0804
     33 CL         63.5966   84.3633   10.2993 Cl      1  UNL1       -0.0805
     34 C          62.8963   79.2502   10.9041 C.1     1  UNL1        0.1020
     35 N          62.9148   77.8607   10.3392 N.1     1  UNL1       -0.1908
@<TRIPOS>BOND
     1     9     8    1
     2     9     1    1
     3     1     2   ar
     4     2     3   ar
     5     3    23    1
     6    23    24   am
     7    24    25    2
     8    24    27    1
     9    27    28   ar
    10    28    29   ar
    11    29    30   ar
    12    30    34    1
    13    34    35    3
    14    30    31   ar
    15    31    32   ar
    16    32    33    1
    17     3     4   ar
    18     4     5   ar
    19     5     6   ar
    20     6     7    1
    21     9    10    1
    22    10    11    1
    23    11    12    1
    24    12    13    1
    25    12    19    1
    26    19    20    1
    27    19    21    1
    28    19    22    1
    29    12    14    1
    30    14    15    1
    31    14    16    2
    32    16     9    1
    33     6     1   ar
    34    32    27   ar
    35    23    26    1
    36    15    17    1
    37    15    18    1
@<TRIPOS>MOLECULE
*****
 35 37 0 0 0
SMALL
GASTEIGER

@<TRIPOS>ATOM
      1 C          62.0110   87.1628   10.7924 C.ar    1  UNL1        0.0528
      2 C          62.9710   88.1313   11.4171 C.ar    1  UNL1        0.0167
      3 C          62.6081   89.5826   11.5256 C.ar    1  UNL1        0.0505
      4 C          61.2850   90.0654   11.0093 C.ar    1  UNL1        0.0170
      5 C          60.3250   89.0969   10.3846 C.ar    1  UNL1        0.0307
      6 C          60.6880   87.6456   10.2762 C.ar    1  UNL1        0.1402
      7 F          59.7280   86.6770    9.6514 F       1  UNL1       -0.2044
      8 C          62.4613   86.1102    9.2406 C.3     1  UNL1        0.0607
      9 C          62.3740   85.7113   10.6840 C.3     1  UNL1        0.2223
     10 C          62.1606   85.8165   12.1649 C.3     1  UNL1        0.1959
     11 O          62.3405   84.6088   13.0362 O.3     1  UNL1       -0.3357
     12 C          62.7338   83.2960   12.4265 C.3     1  UNL1        0.2740
     13 C          63.0968   81.8446   12.3180 C.3     1  UNL1        0.0512
     14 C          62.9472   83.1908   10.9455 C.2     1  UNL1        0.3217
     15 N          63.3405   81.8779   10.3357 N.pl3   1  UNL1       -0.2480
     16 N          62.7673   84.3985   10.0742 N.2     1  UNL1       -0.0692
     17 H          63.4585   81.0853   10.9076 H       1  UNL1        0.2882
     18 H          63.4805   81.8089    9.3637 H       1  UNL1        0.2882
     19 C          62.6465   82.8970   13.8698 C.3     1  UNL1        0.4305
     20 F          62.5592   82.4981   15.3132 F       1  UNL1       -0.1670
     21 F          63.7187   83.8897   14.2091 F       1  UNL1       -0.1670
     22 F          61.5744   81.9044   13.5306 F       1  UNL1       -0.1670
     23 N          63.5681   90.5512   12.1503 N.am    1  UNL1       -0.2791
     24 C          64.3549   90.1507   13.3630 C.2     1  UNL1        0.2681
     25 O          64.1816   88.7816   13.9509 O.2     1  UNL1       -0.2681
     26 H          63.6818   91.4498   11.7644 H       1  UNL1        0.1552
     27 C          65.3149   91.1192   13.9877 C.ar    1  UNL1        0.1453
     28 N          66.4920   91.6195   13.2040 N.ar    1  UNL1       -0.2377
     29 C          67.4520   92.5881   13.8288 C.ar    1  UNL1        0.1093
     30 C          67.2349   93.0563   15.2372 C.ar    1  UNL1        0.0884
     31 C          66.0578   92.5561   16.0209 C.ar    1  UNL1        0.0249
     32 C          65.0978   91.5875   15.3961 C.ar    1  UNL1        0.0804
     33 CL         63.9207   91.0873   16.1798 Cl      1  UNL1       -0.0805
     34 C          68.1949   94.0249   15.8619 C.1     1  UNL1        0.1020
     35 N          69.1549   94.9935   16.4867 N.1     1  UNL1       -0.1908
@<TRIPOS>BOND
     1     9     8    1
     2     9     1    1
     3     1     2   ar
     4     2     3   ar
     5     3    23    1
     6    23    24   am
     7    24    25    2
     8    24    27    1
     9    27    28   ar
    10    28    29   ar
    11    29    30   ar
    12    30    34    1
    13    34    35    3
    14    30    31   ar
    15    31    32   ar
    16    32    33    1
    17     3     4   ar
    18     4     5   ar
    19     5     6   ar
    20     6     7    1
    21     9    10    1
    22    10    11    1
    23    11    12    1
    24    12    13    1
    25    12    19    1
    26    19    20    1
    27    19    21    1
    28    19    22    1
    29    12    14    1
    30    14    15    1
    31    14    16    2
    32    16     9    1
    33     6     1   ar
    34    32    27   ar
    35    23    26    1
    36    15    17    1
    37    15    18    1
@<TRIPOS>MOLECULE
*****
 35 37 0 0 0
SMALL
GASTEIGER

@<TRIPOS>ATOM
      1 C          63.9271   86.1518   15.2776 C.ar    1  UNL1        0.0528
      2 C          64.4584   87.4255   14.6900 C.ar    1  UNL1        0.0167
      3 C          64.1561   88.7387   15.3488 C.ar    1  UNL1        0.0505
      4 C          63.3223   88.7782   16.5951 C.ar    1  UNL1        0.0170
      5 C          62.7909   87.5045   17.1826 C.ar    1  UNL1        0.0307
      6 C          63.0933   86.1913   16.5239 C.ar    1  UNL1        0.1402
      7 F          62.5620   84.9175   17.1114 F       1  UNL1       -0.2044
      8 C          65.5731   85.4973   14.5153 C.3     1  UNL1        0.0607
      9 C          64.2295   84.8385   14.6188 C.3     1  UNL1        0.2223
     10 C          62.7809   84.6358   14.9511 C.3     1  UNL1        0.1959
     11 O          62.1013   83.3486   14.5887 O.3     1  UNL1       -0.3357
     12 C          62.8703   82.2642   13.8940 C.3     1  UNL1        0.2740
     13 C          63.1727   80.9510   13.2353 C.3     1  UNL1        0.0512
     14 C          64.3189   82.4669   13.5617 C.2     1  UNL1        0.3217
     15 N          65.0879   81.3824   12.8670 N.pl3   1  UNL1       -0.2480
     16 N          64.9985   83.7541   13.9241 N.2     1  UNL1       -0.0692
     17 H          64.6419   80.5376   12.6291 H       1  UNL1        0.2882
     18 H          66.0387   81.5155   12.6489 H       1  UNL1        0.2882
     19 C          61.5267   81.6053   13.9975 C.3     1  UNL1        0.4305
     20 F          60.1831   80.9465   14.1011 F       1  UNL1       -0.1670
     21 F          61.1175   82.6036   15.0397 F       1  UNL1       -0.1670
     22 F          61.9359   80.6072   12.9554 F       1  UNL1       -0.1670
     23 N          64.6874   90.0125   14.7612 N.am    1  UNL1       -0.2791
     24 C          64.3173   90.4044   13.3614 C.2     1  UNL1        0.2681
     25 O          63.4158   89.5225   12.5492 O.2     1  UNL1       -0.2681
     26 H          65.2791   90.5913   15.2943 H       1  UNL1        0.1552
     27 C          64.8486   91.6782   12.7739 C.ar    1  UNL1        0.1453
     28 N          65.6917   92.5952   13.6095 N.ar    1  UNL1       -0.2377
     29 C          66.2230   93.8690   13.0219 C.ar    1  UNL1        0.1093
     30 C          65.9113   94.2257   11.5987 C.ar    1  UNL1        0.0884
     31 C          65.0682   93.3086   10.7630 C.ar    1  UNL1        0.0249
     32 C          64.5369   92.0349   11.3506 C.ar    1  UNL1        0.0804
     33 CL         63.6939   91.1178   10.5149 Cl      1  UNL1       -0.0805
     34 C          66.4426   95.4994   11.0111 C.1     1  UNL1        0.1020
     35 N          66.9740   96.7732   10.4235 N.1     1  UNL1       -0.1908
@<TRIPOS>BOND
     1     9     8    1
     2     9     1    1
     3     1     2   ar
     4     2     3   ar
     5     3    23    1
     6    23    24   am
     7    24    25    2
     8    24    27    1
     9    27    28   ar
    10    28    29   ar
    11    29    30   ar
    12    30    34    1
    13    34    35    3
    14    30    31   ar
    15    31    32   ar
    16    32    33    1
    17     3     4   ar
    18     4     5   ar
    19     5     6   ar
    20     6     7    1
    21     9    10    1
    22    10    11    1
    23    11    12    1
    24    12    13    1
    25    12    19    1
    26    19    20    1
    27    19    21    1
    28    19    22    1
    29    12    14    1
    30    14    15    1
    31    14    16    2
    32    16     9    1
    33     6     1   ar
    34    32    27   ar
    35    23    26    1
    36    15    17    1
    37    15    18    1
@<TRIPOS>MOLECULE
*****
 35 37 0 0 0
SMALL
GASTEIGER

@<TRIPOS>ATOM
      1 C          63.9943   88.7666   14.9313 C.ar    1  UNL1        0.0528
      2 C          64.0081   87.3861   14.3449 C.ar    1  UNL1        0.0167
      3 C          63.5609   86.2162   15.1703 C.ar    1  UNL1        0.0505
      4 C          63.0998   86.4268   16.5820 C.ar    1  UNL1        0.0170
      5 C          63.0860   87.8073   17.1684 C.ar    1  UNL1        0.0307
      6 C          63.5332   88.9772   16.3431 C.ar    1  UNL1        0.1402
      7 F          63.5193   90.3579   16.9294 F       1  UNL1       -0.2044
      8 C          65.2733   90.1520   15.3355 C.3     1  UNL1        0.0607
      9 C          64.4415   89.9366   14.1059 C.3     1  UNL1        0.2223
     10 C          63.4544   89.3149   13.1631 C.3     1  UNL1        0.1959
     11 O          63.2034   89.9379   11.8219 O.3     1  UNL1       -0.3357
     12 C          63.9395   91.1827   11.4236 C.3     1  UNL1        0.2740
     13 C          64.3867   92.3526   10.5983 C.3     1  UNL1        0.0512
     14 C          64.9266   91.8044   12.3664 C.2     1  UNL1        0.3217
     15 N          65.6627   93.0492   11.9681 N.pl3   1  UNL1       -0.2480
     16 N          65.1776   91.1814   13.7076 N.2     1  UNL1       -0.0692
     17 H          65.4980   93.4582   11.0878 H       1  UNL1        0.2882
     18 H          66.3106   93.4573   12.5869 H       1  UNL1        0.2882
     19 C          63.1077   90.9672   10.1940 C.3     1  UNL1        0.4305
     20 F          62.2759   90.7518    8.9645 F       1  UNL1       -0.1670
     21 F          62.8514   89.5507   10.6156 F       1  UNL1       -0.1670
     22 F          63.3640   92.3837    9.7725 F       1  UNL1       -0.1670
     23 N          63.5748   84.8355   14.5839 N.am    1  UNL1       -0.2791
     24 C          62.8233   84.5511   13.3173 C.2     1  UNL1        0.2681
     25 O          62.0580   85.6473   12.6370 O.2     1  UNL1       -0.2681
     26 H          64.0771   84.1161   15.0304 H       1  UNL1        0.1552
     27 C          62.8371   83.1706   12.7309 C.ar    1  UNL1        0.1453
     28 N          62.4334   81.9950   13.5705 N.ar    1  UNL1       -0.2377
     29 C          62.4472   80.6144   12.9841 C.ar    1  UNL1        0.1093
     30 C          62.8648   80.4094   11.5581 C.ar    1  UNL1        0.0884
     31 C          63.2686   81.5850   10.7184 C.ar    1  UNL1        0.0249
     32 C          63.2547   82.9656   11.3048 C.ar    1  UNL1        0.0804
     33 CL         63.6585   84.1411   10.4652 Cl      1  UNL1       -0.0805
     34 C          62.8786   79.0289   10.9717 C.1     1  UNL1        0.1020
     35 N          62.8925   77.6483   10.3853 N.1     1  UNL1       -0.1908
@<TRIPOS>BOND
     1     9     8    1
     2     9     1    1
     3     1     2   ar
     4     2     3   ar
     5     3    23    1
     6    23    24   am
     7    24    25    2
     8    24    27    1
     9    27    28   ar
    10    28    29   ar
    11    29    30   ar
    12    30    34    1
    13    34    35    3
    14    30    31   ar
    15    31    32   ar
    16    32    33    1
    17     3     4   ar
    18     4     5   ar
    19     5     6   ar
    20     6     7    1
    21     9    10    1
    22    10    11    1
    23    11    12    1
    24    12    13    1
    25    12    19    1
    26    19    20    1
    27    19    21    1
    28    19    22    1
    29    12    14    1
    30    14    15    1
    31    14    16    2
    32    16     9    1
    33     6     1   ar
    34    32    27   ar
    35    23    26    1
    36    15    17    1
    37    15    18    1
@<TRIPOS>MOLECULE
*****
 35 37 0 0 0
SMALL
GASTEIGER

@<TRIPOS>ATOM
      1 C          63.0408   89.9549   11.7037 C.ar    1  UNL1        0.0528
      2 C          62.9531   88.4848   11.9880 C.ar    1  UNL1        0.0167
      3 C          62.1291   87.5976   11.1026 C.ar    1  UNL1        0.0505
      4 C          61.3928   88.1806    9.9330 C.ar    1  UNL1        0.0170
      5 C          61.4806   89.6508    9.6487 C.ar    1  UNL1        0.0307
      6 C          62.3046   90.5380   10.5341 C.ar    1  UNL1        0.1402
      7 F          62.3924   92.0082   10.2498 F       1  UNL1       -0.2044
      8 C          63.1670   90.0141   13.6271 C.3     1  UNL1        0.0607
      9 C          63.8649   90.8422   12.5891 C.3     1  UNL1        0.2223
     10 C          64.2765   91.3621   11.2437 C.3     1  UNL1        0.1959
     11 O          65.2698   92.4817   11.1441 O.3     1  UNL1       -0.3357
     12 C          65.8514   93.0813   12.3900 C.3     1  UNL1        0.2740
     13 C          66.6754   93.9685   13.2754 C.3     1  UNL1        0.0512
     14 C          65.4398   92.5614   13.7354 C.2     1  UNL1        0.3217
     15 N          66.0215   93.1610   14.9813 N.pl3   1  UNL1       -0.2480
     16 N          64.4465   91.4418   13.8350 N.2     1  UNL1       -0.0692
     17 H          66.6734   93.8958   14.9159 H       1  UNL1        0.2882
     18 H          65.7513   92.8197   15.8643 H       1  UNL1        0.2882
     19 C          66.5493   93.9094   11.3520 C.3     1  UNL1        0.4305
     20 F          67.2471   94.7375   10.3141 F       1  UNL1       -0.1670
     21 F          65.9847   95.1558   11.9668 F       1  UNL1       -0.1670
     22 F          67.1138   92.6631   10.7373 F       1  UNL1       -0.1670
     23 N          62.0413   86.1274   11.3869 N.am    1  UNL1       -0.2791
     24 C          62.8336   85.5326   12.5132 C.2     1  UNL1        0.2681
     25 O          63.7137   86.4081   13.3552 O.2     1  UNL1       -0.2681
     26 H          61.4636   85.5528   10.8342 H       1  UNL1        0.1552
     27 C          62.7458   84.0625   12.7974 C.ar    1  UNL1        0.1453
     28 N          62.2291   83.5842   14.1219 N.ar    1  UNL1       -0.2377
     29 C          62.1413   82.1139   14.4062 C.ar    1  UNL1        0.1093
     30 C          62.5702   81.1220   13.3660 C.ar    1  UNL1        0.0884
     31 C          63.0869   81.6003   12.0415 C.ar    1  UNL1        0.0249
     32 C          63.1747   83.0705   11.7572 C.ar    1  UNL1        0.0804
     33 CL         63.6914   83.5487   10.4327 Cl      1  UNL1       -0.0805
     34 C          62.4825   79.6519   13.6502 C.1     1  UNL1        0.1020
     35 N          62.3947   78.1816   13.9345 N.1     1  UNL1       -0.1908
@<TRIPOS>BOND
     1     9     8    1
     2     9     1    1
     3     1     2   ar
     4     2     3   ar
     5     3    23    1
     6    23    24   am
     7    24    25    2
     8    24    27    1
     9    27    28   ar
    10    28    29   ar
    11    29    30   ar
    12    30    34    1
    13    34    35    3
    14    30    31   ar
    15    31    32   ar
    16    32    33    1
    17     3     4   ar
    18     4     5   ar
    19     5     6   ar
    20     6     7    1
    21     9    10    1
    22    10    11    1
    23    11    12    1
    24    12    13    1
    25    12    19    1
    26    19    20    1
    27    19    21    1
    28    19    22    1
    29    12    14    1
    30    14    15    1
    31    14    16    2
    32    16     9    1
    33     6     1   ar
    34    32    27   ar
    35    23    26    1
    36    15    17    1
    37    15    18    1
@<TRIPOS>MOLECULE
*****
 35 37 0 0 0
SMALL
GASTEIGER

@<TRIPOS>ATOM
      1 C          63.4973   90.0564   12.7448 C.ar    1  UNL1        0.0528
      2 C          63.2837   88.5739   12.8257 C.ar    1  UNL1        0.0167
      3 C          62.7997   87.8192   11.6232 C.ar    1  UNL1        0.0505
      4 C          62.5292   88.5470   10.3398 C.ar    1  UNL1        0.0170
      5 C          62.7428   90.0295   10.2588 C.ar    1  UNL1        0.0307
      6 C          63.2269   90.7842   11.4614 C.ar    1  UNL1        0.1402
      7 F          63.4405   92.2667   11.3805 F       1  UNL1       -0.2044
      8 C          62.5602   90.5568   14.3542 C.3     1  UNL1        0.0607
      9 C          63.9814   90.8112   13.9473 C.3     1  UNL1        0.2223
     10 C          65.2344   90.8035   13.1229 C.3     1  UNL1        0.1959
     11 O          66.4780   91.4622   13.6422 O.3     1  UNL1       -0.3357
     12 C          66.4684   92.1286   14.9861 C.3     1  UNL1        0.2740
     13 C          66.9524   92.8833   16.1886 C.3     1  UNL1        0.0512
     14 C          65.2154   92.1363   15.8105 C.2     1  UNL1        0.3217
     15 N          65.2059   92.8027   17.1543 N.pl3   1  UNL1       -0.2480
     16 N          63.9719   91.4776   15.2912 N.2     1  UNL1       -0.0692
     17 H          66.0220   93.2350   17.4952 H       1  UNL1        0.2882
     18 H          64.3834   92.8078   17.6955 H       1  UNL1        0.2882
     19 C          67.8897   92.3830   14.5792 C.3     1  UNL1        0.4305
     20 F          69.3109   92.6375   14.1724 F       1  UNL1       -0.1670
     21 F          67.4098   93.1254   13.3673 F       1  UNL1       -0.1670
     22 F          68.3694   91.6407   15.7911 F       1  UNL1       -0.1670
     23 N          62.5861   86.3367   11.7041 N.am    1  UNL1       -0.2791
     24 C          63.1708   85.5558   12.8435 C.2     1  UNL1        0.2681
     25 O          63.9692   86.2574   13.9020 O.2     1  UNL1       -0.2681
     26 H          62.0621   85.8762   11.0094 H       1  UNL1        0.1552
     27 C          62.9572   84.0733   12.9244 C.ar    1  UNL1        0.1453
     28 N          62.4396   83.4581   14.1908 N.ar    1  UNL1       -0.2377
     29 C          62.2260   81.9756   14.2716 C.ar    1  UNL1        0.1093
     30 C          62.5301   81.1082   13.0862 C.ar    1  UNL1        0.0884
     31 C          63.0477   81.7234   11.8199 C.ar    1  UNL1        0.0249
     32 C          63.2613   83.2059   11.7390 C.ar    1  UNL1        0.0804
     33 CL         63.7790   83.8210   10.4726 Cl      1  UNL1       -0.0805
     34 C          62.3165   79.6258   13.1672 C.1     1  UNL1        0.1020
     35 N          62.1029   78.1432   13.2481 N.1     1  UNL1       -0.1908
@<TRIPOS>BOND
     1     9     8    1
     2     9     1    1
     3     1     2   ar
     4     2     3   ar
     5     3    23    1
     6    23    24   am
     7    24    25    2
     8    24    27    1
     9    27    28   ar
    10    28    29   ar
    11    29    30   ar
    12    30    34    1
    13    34    35    3
    14    30    31   ar
    15    31    32   ar
    16    32    33    1
    17     3     4   ar
    18     4     5   ar
    19     5     6   ar
    20     6     7    1
    21     9    10    1
    22    10    11    1
    23    11    12    1
    24    12    13    1
    25    12    19    1
    26    19    20    1
    27    19    21    1
    28    19    22    1
    29    12    14    1
    30    14    15    1
    31    14    16    2
    32    16     9    1
    33     6     1   ar
    34    32    27   ar
    35    23    26    1
    36    15    17    1
    37    15    18    1
