@<TRIPOS>MOLECULE
*****
 31 34 0 0 0
SMALL
GASTEIGER

@<TRIPOS>ATOM
      1 C          64.1433   85.3480   15.4788 C.ar    1  UNL1        0.1311
      2 C          64.6542   86.2795   14.4200 C.ar    1  UNL1        0.0339
      3 C          64.4514   87.7590   14.5614 C.ar    1  UNL1        0.0027
      4 C          63.7377   88.3069   15.7616 C.ar    1  UNL1        0.0283
      5 C          63.2268   87.3753   16.8205 C.ar    1  UNL1        0.2196
      6 F          62.5131   87.9232   18.0206 F       1  UNL1       -0.1835
      7 N          63.4296   85.8958   16.6790 N.ar    1  UNL1       -0.2035
      8 N          64.3461   83.8685   15.3375 N.pl3   1  UNL1       -0.3143
      9 H          65.0410   83.4141   15.8665 H       1  UNL1        0.1485
     10 C          63.4901   83.0812   14.3901 C.3     1  UNL1        0.1178
     11 C          62.3235   85.0050   11.1210 C.ar    1  UNL1        0.2248
     12 C          62.4311   84.5881   12.5578 C.ar    1  UNL1        0.0573
     13 C          63.3826   83.4980   12.9533 C.ar    1  UNL1        0.0311
     14 C          64.2266   82.8250   11.9118 C.ar    1  UNL1        0.1570
     15 F          65.1782   81.7349   12.3073 F       1  UNL1       -0.2028
     16 C          64.1191   83.2419   10.4750 C.ar    1  UNL1        0.1313
     17 N          63.1676   84.3319   10.0795 N.ar    1  UNL1       -0.2078
     18 C          60.9350   86.2271    9.2966 C.3     1  UNL1        0.2542
     19 O          61.3720   86.0951   10.7254 O.3     1  UNL1       -0.4561
     20 C          63.5349   89.7865   15.9030 C.3     1  UNL1        0.0582
     21 C          64.2327   90.7316   14.9703 C.ar    1  UNL1        0.0044
     22 C          65.3122   91.7034   15.3447 C.ar    1  UNL1        0.0966
     23 N          65.7201   92.4432   14.1053 N.ar    1  UNL1       -0.2273
     24 C          64.8926   91.9287   12.9649 C.ar    1  UNL1        0.1402
     25 N          64.8574   92.2868   11.5087 N.ar    1  UNL1       -0.3377
     26 C          63.9030   91.5871   10.5872 C.ar    1  UNL1        0.0691
     27 C          62.9837   90.5292   11.1218 C.ar    1  UNL1       -0.0047
     28 C          62.0292   89.8294   10.2002 C.3     1  UNL1        0.0326
     29 C          63.0188   90.1711   12.5780 C.ar    1  UNL1       -0.0001
     30 C          63.9733   90.8709   13.4995 C.ar    1  UNL1        0.0315
     31 H          65.4608   92.9811   11.1578 H       1  UNL1        0.1674
@<TRIPOS>BOND
     1    18    19    1
     2    19    11    1
     3    11    12   ar
     4    12    13   ar
     5    13    10    1
     6    10     8    1
     7     8     1    1
     8     1     2   ar
     9     2     3   ar
    10     3     4   ar
    11     4    20    1
    12    20    21    1
    13    21    22   ar
    14    22    23   ar
    15    23    24   ar
    16    24    25   ar
    17    25    26   ar
    18    26    27   ar
    19    27    28    1
    20    27    29   ar
    21    29    30   ar
    22     4     5   ar
    23     5     6    1
    24     5     7   ar
    25    13    14   ar
    26    14    15    1
    27    14    16   ar
    28    16    17   ar
    29    17    11   ar
    30     7     1   ar
    31    30    21   ar
    32    30    24    1
    33     8     9    1
    34    25    31    1
@<TRIPOS>MOLECULE
*****
 31 34 0 0 0
SMALL
GASTEIGER

@<TRIPOS>ATOM
      1 C          63.8903   91.0223   12.1413 C.ar    1  UNL1        0.1311
      2 C          63.9306   89.7832   12.9857 C.ar    1  UNL1        0.0339
      3 C          63.1473   88.5711   12.5766 C.ar    1  UNL1        0.0027
      4 C          62.3238   88.5981   11.3232 C.ar    1  UNL1        0.0283
      5 C          62.2835   89.8372   10.4788 C.ar    1  UNL1        0.2196
      6 F          61.4600   89.8642    9.2254 F       1  UNL1       -0.1835
      7 N          63.0668   91.0493   10.8878 N.ar    1  UNL1       -0.2035
      8 N          64.6736   92.2344   12.5502 N.pl3   1  UNL1       -0.3143
      9 H          64.2255   92.9747   13.0197 H       1  UNL1        0.1485
     10 C          66.1396   92.3186   12.2440 C.3     1  UNL1        0.1178
     11 C          66.4490   95.2260    9.5605 C.ar    1  UNL1        0.2248
     12 C          65.9738   94.4307   10.7402 C.ar    1  UNL1        0.0573
     13 C          66.6149   93.1138   11.0643 C.ar    1  UNL1        0.0311
     14 C          67.7311   92.5923   10.2087 C.ar    1  UNL1        0.1570
     15 F          68.3721   91.2755   10.5329 F       1  UNL1       -0.2028
     16 C          68.2063   93.3876    9.0290 C.ar    1  UNL1        0.1313
     17 N          67.5653   94.7044    8.7049 N.ar    1  UNL1       -0.2078
     18 C          64.4315   96.8524    9.7455 C.3     1  UNL1        0.2542
     19 O          65.8081   96.5428    9.2363 O.3     1  UNL1       -0.4561
     20 C          61.5405   87.3860   10.9142 C.3     1  UNL1        0.0582
     21 C          62.2274   86.2491   10.2172 C.ar    1  UNL1        0.0044
     22 C          62.3860   86.0909    8.7341 C.ar    1  UNL1        0.0966
     23 N          63.1329   84.8149    8.4813 N.ar    1  UNL1       -0.2273
     24 C          63.4360   84.1845    9.8083 C.ar    1  UNL1        0.1402
     25 N          64.1492   82.9179   10.1782 N.ar    1  UNL1       -0.3377
     26 C          64.3028   82.5377   11.6211 C.ar    1  UNL1        0.0691
     27 C          63.7431   83.4241   12.6939 C.ar    1  UNL1       -0.0047
     28 C          63.8967   83.0438   14.1368 C.3     1  UNL1        0.0326
     29 C          63.0299   84.6907   12.3240 C.ar    1  UNL1       -0.0001
     30 C          62.8763   85.0709   10.8811 C.ar    1  UNL1        0.0315
     31 H          64.5165   82.3361    9.4741 H       1  UNL1        0.1674
@<TRIPOS>BOND
     1    18    19    1
     2    19    11    1
     3    11    12   ar
     4    12    13   ar
     5    13    10    1
     6    10     8    1
     7     8     1    1
     8     1     2   ar
     9     2     3   ar
    10     3     4   ar
    11     4    20    1
    12    20    21    1
    13    21    22   ar
    14    22    23   ar
    15    23    24   ar
    16    24    25   ar
    17    25    26   ar
    18    26    27   ar
    19    27    28    1
    20    27    29   ar
    21    29    30   ar
    22     4     5   ar
    23     5     6    1
    24     5     7   ar
    25    13    14   ar
    26    14    15    1
    27    14    16   ar
    28    16    17   ar
    29    17    11   ar
    30     7     1   ar
    31    30    21   ar
    32    30    24    1
    33     8     9    1
    34    25    31    1
@<TRIPOS>MOLECULE
*****
 31 34 0 0 0
SMALL
GASTEIGER

@<TRIPOS>ATOM
      1 C          61.9167   88.9464   11.4100 C.ar    1  UNL1        0.1311
      2 C          62.2391   89.6114   10.1047 C.ar    1  UNL1        0.0339
      3 C          63.1414   90.8093   10.0761 C.ar    1  UNL1        0.0027
      4 C          63.7214   91.3421   11.3528 C.ar    1  UNL1        0.0283
      5 C          63.3990   90.6770   12.6580 C.ar    1  UNL1        0.2196
      6 F          63.9789   91.2099   13.9346 F       1  UNL1       -0.1835
      7 N          62.4966   89.4792   12.6866 N.ar    1  UNL1       -0.2035
      8 N          61.0143   87.7485   11.4387 N.pl3   1  UNL1       -0.3143
      9 H          60.2913   87.6927   12.1046 H       1  UNL1        0.1485
     10 C          61.2136   86.6355   10.4530 C.3     1  UNL1        0.1178
     11 C          63.3380   83.9712   12.4870 C.ar    1  UNL1        0.2248
     12 C          62.3791   85.0828   12.1793 C.ar    1  UNL1        0.0573
     13 C          62.1725   85.5239   10.7606 C.ar    1  UNL1        0.0311
     14 C          62.9248   84.8534    9.6496 C.ar    1  UNL1        0.1570
     15 F          62.7182   85.2945    8.2308 F       1  UNL1       -0.2028
     16 C          63.8838   83.7418    9.9573 C.ar    1  UNL1        0.1313
     17 N          64.0904   83.3007   11.3760 N.ar    1  UNL1       -0.2078
     18 C          62.5485   83.9083   14.9614 C.3     1  UNL1        0.2542
     19 O          63.5447   83.5300   13.9057 O.3     1  UNL1       -0.4561
     20 C          64.6238   92.5401   11.3241 C.3     1  UNL1        0.0582
     21 C          66.1121   92.3591   11.3699 C.ar    1  UNL1        0.0044
     22 C          67.0167   92.1907   10.1853 C.ar    1  UNL1        0.0966
     23 N          68.4208   92.0423   10.6917 N.ar    1  UNL1       -0.2273
     24 C          68.3840   92.1191   12.1893 C.ar    1  UNL1        0.1402
     25 N          69.4655   92.0361   13.2254 N.ar    1  UNL1       -0.3377
     26 C          69.1200   92.1488   14.6806 C.ar    1  UNL1        0.0691
     27 C          67.6931   92.3446   15.0998 C.ar    1  UNL1       -0.0047
     28 C          67.3477   92.4573   16.5552 C.3     1  UNL1        0.0326
     29 C          66.6117   92.4277   14.0637 C.ar    1  UNL1       -0.0001
     30 C          66.9572   92.3149   12.6084 C.ar    1  UNL1        0.0315
     31 H          70.4020   91.9076   12.9502 H       1  UNL1        0.1674
@<TRIPOS>BOND
     1    18    19    1
     2    19    11    1
     3    11    12   ar
     4    12    13   ar
     5    13    10    1
     6    10     8    1
     7     8     1    1
     8     1     2   ar
     9     2     3   ar
    10     3     4   ar
    11     4    20    1
    12    20    21    1
    13    21    22   ar
    14    22    23   ar
    15    23    24   ar
    16    24    25   ar
    17    25    26   ar
    18    26    27   ar
    19    27    28    1
    20    27    29   ar
    21    29    30   ar
    22     4     5   ar
    23     5     6    1
    24     5     7   ar
    25    13    14   ar
    26    14    15    1
    27    14    16   ar
    28    16    17   ar
    29    17    11   ar
    30     7     1   ar
    31    30    21   ar
    32    30    24    1
    33     8     9    1
    34    25    31    1
@<TRIPOS>MOLECULE
*****
 31 34 0 0 0
SMALL
GASTEIGER

@<TRIPOS>ATOM
      1 C          62.3297   86.4228   10.7602 C.ar    1  UNL1        0.1311
      2 C          61.7768   87.5044    9.8802 C.ar    1  UNL1        0.0339
      3 C          61.9026   88.9419   10.2895 C.ar    1  UNL1        0.0027
      4 C          62.5813   89.2979   11.5789 C.ar    1  UNL1        0.0283
      5 C          63.1343   88.2163   12.4590 C.ar    1  UNL1        0.2196
      6 F          63.8130   88.5724   13.7484 F       1  UNL1       -0.1835
      7 N          63.0084   86.7788   12.0496 N.ar    1  UNL1       -0.2035
      8 N          62.2039   84.9852   10.3509 N.pl3   1  UNL1       -0.3143
      9 H          61.4089   84.6823    9.8554 H       1  UNL1        0.1485
     10 C          63.2893   84.0092   10.6965 C.3     1  UNL1        0.1178
     11 C          62.8397   82.6633   14.4027 C.ar    1  UNL1        0.2248
     12 C          63.0171   83.6045   13.2483 C.ar    1  UNL1        0.0573
     13 C          63.1118   83.0679   11.8508 C.ar    1  UNL1        0.0311
     14 C          63.0290   81.5901   11.6076 C.ar    1  UNL1        0.1570
     15 F          63.1237   81.0535   10.2100 F       1  UNL1       -0.2028
     16 C          62.8516   80.6488   12.7619 C.ar    1  UNL1        0.1313
     17 N          62.7569   81.1854   14.1595 N.ar    1  UNL1       -0.2078
     18 C          62.5041   84.6628   16.0272 C.3     1  UNL1        0.2542
     19 O          62.7450   83.1998   15.8003 O.3     1  UNL1       -0.4561
     20 C          62.7072   90.7355   11.9883 C.3     1  UNL1        0.0582
     21 C          63.9629   91.4960   11.6801 C.ar    1  UNL1        0.0044
     22 C          64.4378   91.8976   10.3151 C.ar    1  UNL1        0.0966
     23 N          65.7325   92.6381   10.4742 N.ar    1  UNL1       -0.2273
     24 C          66.0578   92.6941   11.9375 C.ar    1  UNL1        0.1402
     25 N          67.2086   93.2967   12.6875 N.ar    1  UNL1       -0.3377
     26 C          67.2656   93.1933   14.1828 C.ar    1  UNL1        0.0691
     27 C          66.1719   92.4874   14.9281 C.ar    1  UNL1       -0.0047
     28 C          66.2289   92.3841   16.4235 C.3     1  UNL1        0.0326
     29 C          65.0211   91.8849   14.1780 C.ar    1  UNL1       -0.0001
     30 C          64.9640   91.9882   12.6827 C.ar    1  UNL1        0.0315
     31 H          67.9264   93.7600   12.1983 H       1  UNL1        0.1674
@<TRIPOS>BOND
     1    18    19    1
     2    19    11    1
     3    11    12   ar
     4    12    13   ar
     5    13    10    1
     6    10     8    1
     7     8     1    1
     8     1     2   ar
     9     2     3   ar
    10     3     4   ar
    11     4    20    1
    12    20    21    1
    13    21    22   ar
    14    22    23   ar
    15    23    24   ar
    16    24    25   ar
    17    25    26   ar
    18    26    27   ar
    19    27    28    1
    20    27    29   ar
    21    29    30   ar
    22     4     5   ar
    23     5     6    1
    24     5     7   ar
    25    13    14   ar
    26    14    15    1
    27    14    16   ar
    28    16    17   ar
    29    17    11   ar
    30     7     1   ar
    31    30    21   ar
    32    30    24    1
    33     8     9    1
    34    25    31    1
@<TRIPOS>MOLECULE
*****
 31 34 0 0 0
SMALL
GASTEIGER

@<TRIPOS>ATOM
      1 C          63.6054   89.7028   15.8954 C.ar    1  UNL1        0.1311
      2 C          64.1203   88.9152   14.7273 C.ar    1  UNL1        0.0339
      3 C          64.1057   87.4159   14.7688 C.ar    1  UNL1        0.0027
      4 C          63.5762   86.7041   15.9783 C.ar    1  UNL1        0.0283
      5 C          63.0614   87.4917   17.1465 C.ar    1  UNL1        0.2196
      6 F          62.5319   86.7800   18.3561 F       1  UNL1       -0.1835
      7 N          63.0760   88.9910   17.1050 N.ar    1  UNL1       -0.2035
      8 N          63.6200   91.2021   15.8540 N.pl3   1  UNL1       -0.3143
      9 H          62.7934   91.6970   15.6513 H       1  UNL1        0.1485
     10 C          64.8939   91.9476   16.1216 C.3     1  UNL1        0.1178
     11 C          66.5641   92.2687   12.5359 C.ar    1  UNL1        0.2248
     12 C          65.5225   92.1544   13.6093 C.ar    1  UNL1        0.0573
     13 C          65.9355   92.0619   15.0483 C.ar    1  UNL1        0.0311
     14 C          67.3901   92.0837   15.4141 C.ar    1  UNL1        0.1570
     15 F          67.8030   91.9912   16.8531 F       1  UNL1       -0.2028
     16 C          68.4316   92.1980   14.3407 C.ar    1  UNL1        0.1313
     17 N          68.0186   92.2905   12.9017 N.ar    1  UNL1       -0.2078
     18 C          67.0097   93.1042   10.1166 C.3     1  UNL1        0.2542
     19 O          66.1511   92.3612   11.0968 O.3     1  UNL1       -0.4561
     20 C          63.5616   85.2047   16.0198 C.3     1  UNL1        0.0582
     21 C          64.0256   84.4170   14.8305 C.ar    1  UNL1        0.0044
     22 C          65.2613   84.6845   14.0233 C.ar    1  UNL1        0.0966
     23 N          65.3347   83.6564   12.9336 N.ar    1  UNL1       -0.2273
     24 C          64.1444   82.7534   13.0674 C.ar    1  UNL1        0.1402
     25 N          63.6928   81.5638   12.2731 N.ar    1  UNL1       -0.3377
     26 C          62.4321   80.8443   12.6512 C.ar    1  UNL1        0.0691
     27 C          61.6230   81.3144   13.8235 C.ar    1  UNL1       -0.0047
     28 C          60.3623   80.5949   14.2016 C.3     1  UNL1        0.0326
     29 C          62.0747   82.5040   14.6178 C.ar    1  UNL1       -0.0001
     30 C          63.3354   83.2235   14.2397 C.ar    1  UNL1        0.0315
     31 H          64.2238   81.2553   11.5036 H       1  UNL1        0.1674
@<TRIPOS>BOND
     1    18    19    1
     2    19    11    1
     3    11    12   ar
     4    12    13   ar
     5    13    10    1
     6    10     8    1
     7     8     1    1
     8     1     2   ar
     9     2     3   ar
    10     3     4   ar
    11     4    20    1
    12    20    21    1
    13    21    22   ar
    14    22    23   ar
    15    23    24   ar
    16    24    25   ar
    17    25    26   ar
    18    26    27   ar
    19    27    28    1
    20    27    29   ar
    21    29    30   ar
    22     4     5   ar
    23     5     6    1
    24     5     7   ar
    25    13    14   ar
    26    14    15    1
    27    14    16   ar
    28    16    17   ar
    29    17    11   ar
    30     7     1   ar
    31    30    21   ar
    32    30    24    1
    33     8     9    1
    34    25    31    1
@<TRIPOS>MOLECULE
*****
 31 34 0 0 0
SMALL
GASTEIGER

@<TRIPOS>ATOM
      1 C          62.7856   90.0825   12.7770 C.ar    1  UNL1        0.1311
      2 C          63.5694   88.8068   12.8678 C.ar    1  UNL1        0.0339
      3 C          63.1434   87.6069   12.0750 C.ar    1  UNL1        0.0027
      4 C          61.9337   87.6826   11.1913 C.ar    1  UNL1        0.0283
      5 C          61.1499   88.9584   11.1005 C.ar    1  UNL1        0.2196
      6 F          59.9402   89.0341   10.2168 F       1  UNL1       -0.1835
      7 N          61.5759   90.1583   11.8933 N.ar    1  UNL1       -0.2035
      8 N          63.2116   91.2825   13.5698 N.pl3   1  UNL1       -0.3143
      9 H          62.8773   92.1763   13.3279 H       1  UNL1        0.1485
     10 C          64.1469   91.1207   14.7314 C.3     1  UNL1        0.1178
     11 C          67.7469   92.0829   13.3663 C.ar    1  UNL1        0.2248
     12 C          66.3630   91.5080   13.4320 C.ar    1  UNL1        0.0573
     13 C          65.5307   91.6956   14.6657 C.ar    1  UNL1        0.0311
     14 C          66.0823   92.4582   15.8337 C.ar    1  UNL1        0.1570
     15 F          65.2500   92.6458   17.0675 F       1  UNL1       -0.2028
     16 C          67.4662   93.0331   15.7680 C.ar    1  UNL1        0.1313
     17 N          68.2985   92.8455   14.5343 N.ar    1  UNL1       -0.2078
     18 C          67.9757   92.1248   10.7787 C.3     1  UNL1        0.2542
     19 O          68.5793   91.8953   12.1326 O.3     1  UNL1       -0.4561
     20 C          61.5077   86.4826   10.3984 C.3     1  UNL1        0.0582
     21 C          62.4266   85.3041   10.2695 C.ar    1  UNL1        0.0044
     22 C          63.1030   84.8470    9.0111 C.ar    1  UNL1        0.0966
     23 N          63.9249   83.6362    9.3402 N.ar    1  UNL1       -0.2273
     24 C          63.7565   83.3449   10.8020 C.ar    1  UNL1        0.1402
     25 N          64.3267   82.2742   11.6842 N.ar    1  UNL1       -0.3377
     26 C          63.9709   82.2344   13.1408 C.ar    1  UNL1        0.0691
     27 C          63.0449   83.2652   13.7152 C.ar    1  UNL1       -0.0047
     28 C          62.6891   83.2253   15.1719 C.3     1  UNL1        0.0326
     29 C          62.4747   84.3359   12.8329 C.ar    1  UNL1       -0.0001
     30 C          62.8305   84.3757   11.3763 C.ar    1  UNL1        0.0315
     31 H          64.9345   81.5976   11.3073 H       1  UNL1        0.1674
@<TRIPOS>BOND
     1    18    19    1
     2    19    11    1
     3    11    12   ar
     4    12    13   ar
     5    13    10    1
     6    10     8    1
     7     8     1    1
     8     1     2   ar
     9     2     3   ar
    10     3     4   ar
    11     4    20    1
    12    20    21    1
    13    21    22   ar
    14    22    23   ar
    15    23    24   ar
    16    24    25   ar
    17    25    26   ar
    18    26    27   ar
    19    27    28    1
    20    27    29   ar
    21    29    30   ar
    22     4     5   ar
    23     5     6    1
    24     5     7   ar
    25    13    14   ar
    26    14    15    1
    27    14    16   ar
    28    16    17   ar
    29    17    11   ar
    30     7     1   ar
    31    30    21   ar
    32    30    24    1
    33     8     9    1
    34    25    31    1
@<TRIPOS>MOLECULE
*****
 31 34 0 0 0
SMALL
GASTEIGER

@<TRIPOS>ATOM
      1 C          60.8561   87.2480    9.4218 C.ar    1  UNL1        0.1311
      2 C          61.1027   86.6416   10.7715 C.ar    1  UNL1        0.0339
      3 C          62.0337   85.4738   10.9101 C.ar    1  UNL1        0.0027
      4 C          62.7181   84.9123    9.6992 C.ar    1  UNL1        0.0283
      5 C          62.4715   85.5187    8.3496 C.ar    1  UNL1        0.2196
      6 F          63.1559   84.9572    7.1387 F       1  UNL1       -0.1835
      7 N          61.5405   86.6865    8.2109 N.ar    1  UNL1       -0.2035
      8 N          59.9250   88.4159    9.2831 N.pl3   1  UNL1       -0.3143
      9 H          58.9621   88.2641    9.1452 H       1  UNL1        0.1485
     10 C          60.4610   89.8151    9.3544 C.3     1  UNL1        0.1178
     11 C          63.7337   91.2488   11.0817 C.ar    1  UNL1        0.2248
     12 C          62.7324   90.8819   10.0268 C.ar    1  UNL1        0.0573
     13 C          61.4622   90.1818   10.4094 C.ar    1  UNL1        0.0311
     14 C          61.1932   89.8485   11.8469 C.ar    1  UNL1        0.1570
     15 F          59.9230   89.1484   12.2295 F       1  UNL1       -0.2028
     16 C          62.1945   90.2153   12.9019 C.ar    1  UNL1        0.1313
     17 N          63.4647   90.9154   12.5193 N.ar    1  UNL1       -0.2078
     18 C          65.7695   92.7282   11.7271 C.3     1  UNL1        0.2542
     19 O          65.0040   91.9489   10.6992 O.3     1  UNL1       -0.4561
     20 C          63.6492   83.7444    9.8379 C.3     1  UNL1        0.0582
     21 C          63.5348   82.8305   11.0219 C.ar    1  UNL1        0.0044
     22 C          63.1840   81.3728   10.9799 C.ar    1  UNL1        0.0966
     23 N          63.1836   80.8554   12.3878 N.ar    1  UNL1       -0.2273
     24 C          63.5341   81.9934   13.3000 C.ar    1  UNL1        0.1402
     25 N          63.6837   82.0757   14.7902 N.ar    1  UNL1       -0.3377
     26 C          64.0503   83.3789   15.4363 C.ar    1  UNL1        0.0691
     27 C          64.2674   84.5996   14.5921 C.ar    1  UNL1       -0.0047
     28 C          64.6341   85.9028   15.2382 C.3     1  UNL1        0.0326
     29 C          64.1179   84.5172   13.1018 C.ar    1  UNL1       -0.0001
     30 C          63.7512   83.2141   12.4558 C.ar    1  UNL1        0.0315
     31 H          63.5412   81.2745   15.3443 H       1  UNL1        0.1674
@<TRIPOS>BOND
     1    18    19    1
     2    19    11    1
     3    11    12   ar
     4    12    13   ar
     5    13    10    1
     6    10     8    1
     7     8     1    1
     8     1     2   ar
     9     2     3   ar
    10     3     4   ar
    11     4    20    1
    12    20    21    1
    13    21    22   ar
    14    22    23   ar
    15    23    24   ar
    16    24    25   ar
    17    25    26   ar
    18    26    27   ar
    19    27    28    1
    20    27    29   ar
    21    29    30   ar
    22     4     5   ar
    23     5     6    1
    24     5     7   ar
    25    13    14   ar
    26    14    15    1
    27    14    16   ar
    28    16    17   ar
    29    17    11   ar
    30     7     1   ar
    31    30    21   ar
    32    30    24    1
    33     8     9    1
    34    25    31    1
@<TRIPOS>MOLECULE
*****
 31 34 0 0 0
SMALL
GASTEIGER

@<TRIPOS>ATOM
      1 C          63.5555   87.4203   16.0327 C.ar    1  UNL1        0.1311
      2 C          64.3319   87.2831   14.7566 C.ar    1  UNL1        0.0339
      3 C          64.3355   85.9778   14.0176 C.ar    1  UNL1        0.0027
      4 C          63.5627   84.8097   14.5547 C.ar    1  UNL1        0.0283
      5 C          62.7864   84.9469   15.8308 C.ar    1  UNL1        0.2196
      6 F          62.0137   83.7788   16.3679 F       1  UNL1       -0.1835
      7 N          62.7828   86.2522   16.5698 N.ar    1  UNL1       -0.2035
      8 N          63.5519   88.7256   16.7717 N.pl3   1  UNL1       -0.3143
      9 H          63.9178   88.7755   17.6844 H       1  UNL1        0.1485
     10 C          62.9908   89.9548   16.1204 C.3     1  UNL1        0.1178
     11 C          65.8116   92.3602   14.7037 C.ar    1  UNL1        0.2248
     12 C          64.9728   91.5717   15.6653 C.ar    1  UNL1        0.0573
     13 C          63.8296   90.7433   15.1587 C.ar    1  UNL1        0.0311
     14 C          63.5250   90.7034   13.6905 C.ar    1  UNL1        0.1570
     15 F          62.3818   89.8749   13.1839 F       1  UNL1       -0.2028
     16 C          64.3638   91.4918   12.7289 C.ar    1  UNL1        0.1313
     17 N          65.5071   92.3203   13.2355 N.ar    1  UNL1       -0.2078
     18 C          67.9841   92.5746   16.1123 C.3     1  UNL1        0.2542
     19 O          66.9549   93.1886   15.2102 O.3     1  UNL1       -0.4561
     20 C          63.5664   83.5043   13.8157 C.3     1  UNL1        0.0582
     21 C          63.7696   83.4844   12.3296 C.ar    1  UNL1        0.0044
     22 C          64.6756   82.5564   11.5760 C.ar    1  UNL1        0.0966
     23 N          64.5684   82.8874   10.1170 N.ar    1  UNL1       -0.2273
     24 C          63.5962   84.0200    9.9688 C.ar    1  UNL1        0.1402
     25 N          63.0966   84.7630    8.7653 N.ar    1  UNL1       -0.3377
     26 C          62.1034   85.8750    8.9294 C.ar    1  UNL1        0.0691
     27 C          61.6096   86.2439   10.2969 C.ar    1  UNL1       -0.0047
     28 C          60.6163   87.3559   10.4610 C.3     1  UNL1        0.0326
     29 C          62.1092   85.5009   11.5004 C.ar    1  UNL1       -0.0001
     30 C          63.1024   84.3890   11.3363 C.ar    1  UNL1        0.0315
     31 H          63.4207   84.5209    7.8678 H       1  UNL1        0.1674
@<TRIPOS>BOND
     1    18    19    1
     2    19    11    1
     3    11    12   ar
     4    12    13   ar
     5    13    10    1
     6    10     8    1
     7     8     1    1
     8     1     2   ar
     9     2     3   ar
    10     3     4   ar
    11     4    20    1
    12    20    21    1
    13    21    22   ar
    14    22    23   ar
    15    23    24   ar
    16    24    25   ar
    17    25    26   ar
    18    26    27   ar
    19    27    28    1
    20    27    29   ar
    21    29    30   ar
    22     4     5   ar
    23     5     6    1
    24     5     7   ar
    25    13    14   ar
    26    14    15    1
    27    14    16   ar
    28    16    17   ar
    29    17    11   ar
    30     7     1   ar
    31    30    21   ar
    32    30    24    1
    33     8     9    1
    34    25    31    1
@<TRIPOS>MOLECULE
*****
 31 34 0 0 0
SMALL
GASTEIGER

@<TRIPOS>ATOM
      1 C          63.6244   89.5138   15.7708 C.ar    1  UNL1        0.1311
      2 C          64.3410   88.8176   14.6519 C.ar    1  UNL1        0.0339
      3 C          64.3738   87.3189   14.6002 C.ar    1  UNL1        0.0027
      4 C          63.6902   86.5164   15.6673 C.ar    1  UNL1        0.0283
      5 C          62.9737   87.2126   16.7861 C.ar    1  UNL1        0.2196
      6 F          62.2901   86.4101   17.8532 F       1  UNL1       -0.1835
      7 N          62.9409   88.7113   16.8379 N.ar    1  UNL1       -0.2035
      8 N          63.5915   91.0125   15.8226 N.pl3   1  UNL1       -0.3143
      9 H          62.7431   91.4914   15.6810 H       1  UNL1        0.1485
     10 C          64.8513   91.7817   16.0901 C.3     1  UNL1        0.1178
     11 C          66.3875   92.3010   12.4679 C.ar    1  UNL1        0.2248
     12 C          65.3886   92.0922   13.5673 C.ar    1  UNL1        0.0573
     13 C          65.8503   91.9905   14.9908 C.ar    1  UNL1        0.0311
     14 C          67.3109   92.0976   15.3151 C.ar    1  UNL1        0.1570
     15 F          67.7726   91.9959   16.7386 F       1  UNL1       -0.2028
     16 C          68.3098   92.3064   14.2157 C.ar    1  UNL1        0.1313
     17 N          67.8481   92.4081   12.7922 N.ar    1  UNL1       -0.2078
     18 C          66.6393   93.3115   10.0877 C.3     1  UNL1        0.2542
     19 O          65.9259   92.4027   11.0443 O.3     1  UNL1       -0.4561
     20 C          63.7231   85.0175   15.6155 C.3     1  UNL1        0.0582
     21 C          63.9353   84.3168   14.3063 C.ar    1  UNL1        0.0044
     22 C          64.8024   83.1138   14.0805 C.ar    1  UNL1        0.0966
     23 N          64.7206   82.7496   12.6277 N.ar    1  UNL1       -0.2273
     24 C          63.8030   83.7275   11.9556 C.ar    1  UNL1        0.1402
     25 N          63.3467   83.8611   10.5330 N.ar    1  UNL1       -0.3377
     26 C          62.4050   84.9633   10.1478 C.ar    1  UNL1        0.0691
     27 C          61.9197   85.9319   11.1852 C.ar    1  UNL1       -0.0047
     28 C          60.9780   87.0341   10.8000 C.3     1  UNL1        0.0326
     29 C          62.3760   85.7983   12.6078 C.ar    1  UNL1       -0.0001
     30 C          63.3176   84.6961   12.9930 C.ar    1  UNL1        0.0315
     31 H          63.6653   83.2254    9.8521 H       1  UNL1        0.1674
@<TRIPOS>BOND
     1    18    19    1
     2    19    11    1
     3    11    12   ar
     4    12    13   ar
     5    13    10    1
     6    10     8    1
     7     8     1    1
     8     1     2   ar
     9     2     3   ar
    10     3     4   ar
    11     4    20    1
    12    20    21    1
    13    21    22   ar
    14    22    23   ar
    15    23    24   ar
    16    24    25   ar
    17    25    26   ar
    18    26    27   ar
    19    27    28    1
    20    27    29   ar
    21    29    30   ar
    22     4     5   ar
    23     5     6    1
    24     5     7   ar
    25    13    14   ar
    26    14    15    1
    27    14    16   ar
    28    16    17   ar
    29    17    11   ar
    30     7     1   ar
    31    30    21   ar
    32    30    24    1
    33     8     9    1
    34    25    31    1
