@<TRIPOS>MOLECULE
*****
 45 49 0 0 0
SMALL
GASTEIGER

@<TRIPOS>ATOM
      1 C          64.6942   86.7489   14.1815 C.3     1  UNL1        0.1245
      2 N          64.1786   87.3565   15.4524 N.am    1  UNL1       -0.2735
      3 C          63.7861   88.8038   15.4864 C.2     1  UNL1        0.2492
      4 O          63.2704   89.4114   16.7572 O.2     1  UNL1       -0.2699
      5 C          63.9092   89.6436   14.2496 C.ar    1  UNL1        0.0567
      6 C          63.0320   89.3668   13.0647 C.ar    1  UNL1        0.0063
      7 C          63.1552   90.2066   11.8280 C.ar    1  UNL1        0.0225
      8 C          64.1554   91.3232   11.7761 C.ar    1  UNL1        0.1189
      9 N          64.5012   92.3119   10.7023 N.ar    1  UNL1       -0.2083
     10 C          65.5920   93.1998   11.2237 C.ar    1  UNL1        0.2297
     11 O          65.9204   92.7598   12.6196 O.2     1  UNL1       -0.4346
     12 C          65.0326   91.6000   12.9610 C.ar    1  UNL1        0.1649
     13 C          64.9094   90.7602   14.1977 C.ar    1  UNL1        0.0436
     14 C          66.2407   94.3293   10.4797 C.ar    1  UNL1        0.0536
     15 C          66.1654   95.7258   11.0221 C.ar    1  UNL1        0.0046
     16 C          66.8140   96.8553   10.2782 C.ar    1  UNL1        0.0002
     17 C          67.5378   96.5884    8.9919 C.ar    1  UNL1        0.0000
     18 C          67.6131   95.1920    8.4494 C.ar    1  UNL1        0.0002
     19 C          66.9645   94.0624    9.1933 C.ar    1  UNL1        0.0046
     20 C          64.0555   86.5167   16.6892 C.3     1  UNL1        0.0937
     21 C          62.5084   86.8266   18.7533 C.3     1  UNL1        0.0018
     22 C          62.7193   86.3443   17.3487 C.3     1  UNL1        0.0199
     23 C          61.5940   85.6895   16.6036 C.3     1  UNL1        0.0018
     24 C          65.2897   85.3722   14.1961 C.3     1  UNL1        0.1484
     25 O          66.7052   85.1721   14.6504 O.3     1  UNL1       -0.3810
     26 H          67.0893   86.0277   14.8980 H       1  UNL1        0.2105
     27 C          64.4698   84.1957   13.7563 C.3     1  UNL1        0.1075
     28 N          64.2203   83.9591   12.2962 N.am    1  UNL1       -0.2695
     29 C          62.9988   84.5329   11.6414 C.2     1  UNL1        0.4020
     30 O          62.0268   85.3433   12.4468 O.2     1  UNL1       -0.2264
     31 H          64.8583   83.4273   11.7676 H       1  UNL1        0.1528
     32 O          62.7493   84.2964   10.1814 O.3     1  UNL1       -0.4291
     33 C          62.8188   85.4404    9.2137 C.3     1  UNL1        0.2447
     34 C          61.6576   86.3806    9.0792 C.ar    1  UNL1        0.0714
     35 C          61.4460   87.6387    9.8681 C.ar    1  UNL1        0.1053
     36 N          60.1619   88.2634    9.4087 N.ar    1  UNL1       -0.2350
     37 C          59.5800   87.3912    8.3359 C.ar    1  UNL1        0.1343
     38 S          60.5044   86.2276    8.1323 S.2     1  UNL1       -0.0652
     39 C          63.8993   83.2557   14.7766 C.3     1  UNL1        0.0485
     40 C          63.0635   82.0900   14.3378 C.ar    1  UNL1       -0.0204
     41 C          61.5766   82.1173   14.5336 C.ar    1  UNL1       -0.0042
     42 C          60.7408   80.9515   14.0948 C.ar    1  UNL1       -0.0003
     43 C          61.3920   79.7585   13.4603 C.ar    1  UNL1       -0.0000
     44 C          62.8789   79.7312   13.2645 C.ar    1  UNL1       -0.0003
     45 C          63.7146   80.8969   13.7033 C.ar    1  UNL1       -0.0042
@<TRIPOS>BOND
     1    21    22    1
     2    22    23    1
     3    22    20    1
     4    20     2    1
     5     2     1    1
     6     1    24    1
     7    24    25    1
     8    24    27    1
     9    27    39    1
    10    39    40    1
    11    40    41   ar
    12    41    42   ar
    13    42    43   ar
    14    43    44   ar
    15    44    45   ar
    16    27    28    1
    17    28    29   am
    18    29    30    2
    19    29    32    1
    20    32    33    1
    21    33    34    1
    22    34    35   ar
    23    35    36   ar
    24    36    37   ar
    25    37    38   ar
    26     2     3   am
    27     3     4    2
    28     3     5    1
    29     5     6   ar
    30     6     7   ar
    31     7     8   ar
    32     8     9   ar
    33     9    10   ar
    34    10    14    1
    35    14    15   ar
    36    15    16   ar
    37    16    17   ar
    38    17    18   ar
    39    18    19   ar
    40    10    11   ar
    41    11    12   ar
    42    12    13   ar
    43    45    40   ar
    44    38    34   ar
    45    13     5   ar
    46    12     8   ar
    47    19    14   ar
    48    25    26    1
    49    28    31    1
@<TRIPOS>MOLECULE
*****
 45 49 0 0 0
SMALL
GASTEIGER

@<TRIPOS>ATOM
      1 C          60.4701   90.0499    9.2121 C.3     1  UNL1        0.1245
      2 N          59.9037   88.6929    8.9157 N.am    1  UNL1       -0.2735
      3 C          59.2552   88.4241    7.5901 C.2     1  UNL1        0.2492
      4 O          58.6888   87.0672    7.2937 O.2     1  UNL1       -0.2699
      5 C          59.1730   89.5123    6.5609 C.ar    1  UNL1        0.0567
      6 C          57.8547   90.1610    6.2590 C.ar    1  UNL1        0.0063
      7 C          57.7726   91.2491    5.2298 C.ar    1  UNL1        0.0225
      8 C          59.0088   91.6885    4.5026 C.ar    1  UNL1        0.1189
      9 N          59.2350   92.7278    3.4449 N.ar    1  UNL1       -0.2083
     10 C          60.6932   92.7214    3.0931 C.ar    1  UNL1        0.2297
     11 O          61.3681   91.6782    3.9335 O.2     1  UNL1       -0.4346
     12 C          60.3271   91.0398    4.8046 C.ar    1  UNL1        0.1649
     13 C          60.4092   89.9517    5.8338 C.ar    1  UNL1        0.0436
     14 C          61.3595   93.6033    2.0791 C.ar    1  UNL1        0.0536
     15 C          62.6387   93.1656    1.4295 C.ar    1  UNL1        0.0046
     16 C          63.3050   94.0474    0.4155 C.ar    1  UNL1        0.0002
     17 C          62.6922   95.3671    0.0511 C.ar    1  UNL1        0.0000
     18 C          61.4129   95.8049    0.7006 C.ar    1  UNL1        0.0002
     19 C          60.7466   94.9230    1.7147 C.ar    1  UNL1        0.0046
     20 C          59.9859   87.6048    9.9449 C.3     1  UNL1        0.0937
     21 C          61.8877   86.4021    8.6461 C.3     1  UNL1        0.0018
     22 C          61.1277   86.6324    9.9187 C.3     1  UNL1        0.0199
     23 C          61.5096   85.8902   11.1651 C.3     1  UNL1        0.0018
     24 C          61.0476   90.3423   10.5653 C.3     1  UNL1        0.1484
     25 O          60.1378   90.6267   11.7235 O.3     1  UNL1       -0.3810
     26 H          59.2149   90.5823   11.4282 H       1  UNL1        0.2105
     27 C          62.5348   90.3504   10.7603 C.3     1  UNL1        0.1075
     28 N          63.2241   89.1424   11.3223 N.am    1  UNL1       -0.2695
     29 C          63.1073   88.8244   12.7836 C.2     1  UNL1        0.4020
     30 O          62.3013   89.7143   13.6828 O.2     1  UNL1       -0.2264
     31 H          63.7531   88.5584   10.7322 H       1  UNL1        0.1528
     32 O          63.7966   87.6165   13.3457 O.3     1  UNL1       -0.4291
     33 C          64.3776   87.6599   14.7279 C.3     1  UNL1        0.2447
     34 C          63.6457   87.0187   15.8696 C.ar    1  UNL1        0.0714
     35 C          63.3316   85.5583   16.0065 C.ar    1  UNL1        0.1053
     36 N          62.5912   85.3624   17.2962 N.ar    1  UNL1       -0.2350
     37 C          62.4477   86.7017   17.9564 C.ar    1  UNL1        0.1343
     38 S          63.0994   87.7253   17.0746 S.2     1  UNL1       -0.0652
     39 C          63.3328   91.5662   10.3932 C.3     1  UNL1        0.0485
     40 C          64.5687   91.9144   11.1686 C.ar    1  UNL1       -0.0204
     41 C          65.8163   92.3274   10.4456 C.ar    1  UNL1       -0.0042
     42 C          67.0522   92.6756   11.2211 C.ar    1  UNL1       -0.0003
     43 C          67.0405   92.6108   12.7196 C.ar    1  UNL1       -0.0000
     44 C          65.7928   92.1978   13.4427 C.ar    1  UNL1       -0.0003
     45 C          64.5570   91.8496   12.6672 C.ar    1  UNL1       -0.0042
@<TRIPOS>BOND
     1    21    22    1
     2    22    23    1
     3    22    20    1
     4    20     2    1
     5     2     1    1
     6     1    24    1
     7    24    25    1
     8    24    27    1
     9    27    39    1
    10    39    40    1
    11    40    41   ar
    12    41    42   ar
    13    42    43   ar
    14    43    44   ar
    15    44    45   ar
    16    27    28    1
    17    28    29   am
    18    29    30    2
    19    29    32    1
    20    32    33    1
    21    33    34    1
    22    34    35   ar
    23    35    36   ar
    24    36    37   ar
    25    37    38   ar
    26     2     3   am
    27     3     4    2
    28     3     5    1
    29     5     6   ar
    30     6     7   ar
    31     7     8   ar
    32     8     9   ar
    33     9    10   ar
    34    10    14    1
    35    14    15   ar
    36    15    16   ar
    37    16    17   ar
    38    17    18   ar
    39    18    19   ar
    40    10    11   ar
    41    11    12   ar
    42    12    13   ar
    43    45    40   ar
    44    38    34   ar
    45    13     5   ar
    46    12     8   ar
    47    19    14   ar
    48    25    26    1
    49    28    31    1
@<TRIPOS>MOLECULE
*****
 45 49 0 0 0
SMALL
GASTEIGER

@<TRIPOS>ATOM
      1 C          66.7388   91.1129   13.9121 C.3     1  UNL1        0.1245
      2 N          65.9242   91.5653   15.0876 N.am    1  UNL1       -0.2735
      3 C          64.6546   90.8488   15.4406 C.2     1  UNL1        0.2492
      4 O          63.8400   91.3011   16.6161 O.2     1  UNL1       -0.2699
      5 C          64.1995   89.6798   14.6180 C.ar    1  UNL1        0.0567
      6 C          63.7107   89.8942   13.2162 C.ar    1  UNL1        0.0063
      7 C          63.2556   88.7253   12.3937 C.ar    1  UNL1        0.0225
      8 C          63.2893   87.3421   12.9730 C.ar    1  UNL1        0.1189
      9 N          62.9068   86.0069   12.4062 N.ar    1  UNL1       -0.2083
     10 C          63.1593   84.9675   13.4578 C.ar    1  UNL1        0.2297
     11 O          63.6977   85.6602   14.6744 O.2     1  UNL1       -0.4346
     12 C          63.7781   87.1277   14.3748 C.ar    1  UNL1        0.1649
     13 C          64.2332   88.2966   15.1973 C.ar    1  UNL1        0.0436
     14 C          62.9160   83.4939   13.3174 C.ar    1  UNL1        0.0536
     15 C          63.3087   82.7859   12.0547 C.ar    1  UNL1        0.0046
     16 C          63.0655   81.3125   11.9142 C.ar    1  UNL1        0.0002
     17 C          62.4294   80.5471   13.0365 C.ar    1  UNL1        0.0000
     18 C          62.0367   81.2551   14.2992 C.ar    1  UNL1        0.0002
     19 C          62.2799   82.7285   14.4397 C.ar    1  UNL1        0.0046
     20 C          66.3793   92.7342   15.9102 C.3     1  UNL1        0.0937
     21 C          68.4168   94.3267   15.6605 C.3     1  UNL1        0.0018
     22 C          67.8446   93.0056   16.0814 C.3     1  UNL1        0.0199
     23 C          68.7376   91.9559   16.6736 C.3     1  UNL1        0.0018
     24 C          67.0870   92.0837   12.8229 C.3     1  UNL1        0.1484
     25 O          68.4391   92.0311   12.1754 O.3     1  UNL1       -0.3810
     26 H          68.9613   91.3178   12.5748 H       1  UNL1        0.2105
     27 C          66.0832   93.1070   12.3811 C.3     1  UNL1        0.1075
     28 N          64.6647   92.6993   12.1135 N.am    1  UNL1       -0.2695
     29 C          64.2934   92.1010   10.7891 C.2     1  UNL1        0.4020
     30 O          65.3407   91.9104    9.7322 O.2     1  UNL1       -0.2264
     31 H          63.9773   92.8245   12.8072 H       1  UNL1        0.1528
     32 O          62.8749   91.6933   10.5214 O.3     1  UNL1       -0.4291
     33 C          62.5853   90.5494    9.5954 C.3     1  UNL1        0.2447
     34 C          61.5075   89.5632    9.9358 C.ar    1  UNL1        0.0714
     35 C          60.2730   89.8485   10.7387 C.ar    1  UNL1        0.1053
     36 N          59.4775   88.5803   10.8323 N.ar    1  UNL1       -0.2350
     37 C          60.2204   87.5111   10.0872 C.ar    1  UNL1        0.1343
     38 S          61.4750   88.1186    9.5332 S.2     1  UNL1       -0.0652
     39 C          66.4979   94.5380   12.2069 C.3     1  UNL1        0.0485
     40 C          66.4754   95.1648   10.8444 C.ar    1  UNL1       -0.0204
     41 C          67.4604   94.7273    9.8012 C.ar    1  UNL1       -0.0042
     42 C          67.4378   95.3542    8.4386 C.ar    1  UNL1       -0.0003
     43 C          66.4303   96.4185    8.1193 C.ar    1  UNL1       -0.0000
     44 C          65.4452   96.8560    9.1625 C.ar    1  UNL1       -0.0003
     45 C          65.4678   96.2292   10.5251 C.ar    1  UNL1       -0.0042
@<TRIPOS>BOND
     1    21    22    1
     2    22    23    1
     3    22    20    1
     4    20     2    1
     5     2     1    1
     6     1    24    1
     7    24    25    1
     8    24    27    1
     9    27    39    1
    10    39    40    1
    11    40    41   ar
    12    41    42   ar
    13    42    43   ar
    14    43    44   ar
    15    44    45   ar
    16    27    28    1
    17    28    29   am
    18    29    30    2
    19    29    32    1
    20    32    33    1
    21    33    34    1
    22    34    35   ar
    23    35    36   ar
    24    36    37   ar
    25    37    38   ar
    26     2     3   am
    27     3     4    2
    28     3     5    1
    29     5     6   ar
    30     6     7   ar
    31     7     8   ar
    32     8     9   ar
    33     9    10   ar
    34    10    14    1
    35    14    15   ar
    36    15    16   ar
    37    16    17   ar
    38    17    18   ar
    39    18    19   ar
    40    10    11   ar
    41    11    12   ar
    42    12    13   ar
    43    45    40   ar
    44    38    34   ar
    45    13     5   ar
    46    12     8   ar
    47    19    14   ar
    48    25    26    1
    49    28    31    1
@<TRIPOS>MOLECULE
*****
 45 49 0 0 0
SMALL
GASTEIGER

@<TRIPOS>ATOM
      1 C          64.2059   87.8715   14.2355 C.3     1  UNL1        0.1245
      2 N          63.5077   88.5307   15.3878 N.am    1  UNL1       -0.2735
      3 C          63.7538   89.9804   15.6840 C.2     1  UNL1        0.2492
      4 O          63.0556   90.6396   16.8364 O.2     1  UNL1       -0.2699
      5 C          64.6982   90.7710   14.8277 C.ar    1  UNL1        0.0567
      6 C          66.1655   90.7784   15.1390 C.ar    1  UNL1        0.0063
      7 C          67.1098   91.5690   14.2828 C.ar    1  UNL1        0.0225
      8 C          66.5869   92.3522   13.1153 C.ar    1  UNL1        0.1189
      9 N          67.2718   93.2186   12.1002 N.ar    1  UNL1       -0.2083
     10 C          66.2277   93.7467   11.1616 C.ar    1  UNL1        0.2297
     11 O          64.8976   93.2067   11.5966 O.2     1  UNL1       -0.4346
     12 C          65.1196   92.3448   12.8040 C.ar    1  UNL1        0.1649
     13 C          64.1753   91.5542   13.6602 C.ar    1  UNL1        0.0436
     14 C          66.4709   94.6554    9.9932 C.ar    1  UNL1        0.0536
     15 C          67.4740   94.2762    8.9443 C.ar    1  UNL1        0.0046
     16 C          67.7173   95.1848    7.7759 C.ar    1  UNL1        0.0002
     17 C          66.9575   96.4726    7.6563 C.ar    1  UNL1        0.0000
     18 C          65.9544   96.8518    8.7052 C.ar    1  UNL1        0.0002
     19 C          65.7111   95.9432    9.8736 C.ar    1  UNL1        0.0046
     20 C          62.5632   87.7401   16.2441 C.3     1  UNL1        0.0937
     21 C          63.8662   85.5039   16.4718 C.3     1  UNL1        0.0018
     22 C          63.0822   86.6200   17.0962 C.3     1  UNL1        0.0199
     23 C          62.8173   86.6160   18.5726 C.3     1  UNL1        0.0018
     24 C          63.4702   87.6323   12.9503 C.3     1  UNL1        0.1484
     25 O          63.2280   88.7689   12.0019 O.3     1  UNL1       -0.3810
     26 H          63.6085   89.5825   12.3684 H       1  UNL1        0.2105
     27 C          62.9766   86.2564   12.6136 C.3     1  UNL1        0.1075
     28 N          61.7311   86.0859   11.7952 N.am    1  UNL1       -0.2695
     29 C          61.7816   86.2637   10.3066 C.2     1  UNL1        0.4020
     30 O          63.0776   86.6121    9.6364 O.2     1  UNL1       -0.2264
     31 H          60.8805   85.8572   12.2350 H       1  UNL1        0.1528
     32 O          60.5362   86.0931    9.4882 O.3     1  UNL1       -0.4291
     33 C          59.5947   87.2465    9.3059 C.3     1  UNL1        0.2447
     34 C          59.7667   88.4917   10.1245 C.ar    1  UNL1        0.0714
     35 C          59.2839   88.6967   11.5298 C.ar    1  UNL1        0.1053
     36 N          59.6705   90.0821   11.9554 N.ar    1  UNL1       -0.2350
     37 C          60.3924   90.7334   10.8130 C.ar    1  UNL1        0.1343
     38 S          60.4518   89.7504    9.6815 S.2     1  UNL1       -0.0652
     39 C          63.7285   85.0512   13.0952 C.3     1  UNL1        0.0485
     40 C          63.5023   83.7177   12.4468 C.ar    1  UNL1       -0.0204
     41 C          62.7510   82.6455   13.1790 C.ar    1  UNL1       -0.0042
     42 C          62.5248   81.3119   12.5306 C.ar    1  UNL1       -0.0003
     43 C          63.0498   81.0505   11.1500 C.ar    1  UNL1       -0.0000
     44 C          63.8011   82.1226   10.4179 C.ar    1  UNL1       -0.0003
     45 C          64.0273   83.4562   11.0662 C.ar    1  UNL1       -0.0042
@<TRIPOS>BOND
     1    21    22    1
     2    22    23    1
     3    22    20    1
     4    20     2    1
     5     2     1    1
     6     1    24    1
     7    24    25    1
     8    24    27    1
     9    27    39    1
    10    39    40    1
    11    40    41   ar
    12    41    42   ar
    13    42    43   ar
    14    43    44   ar
    15    44    45   ar
    16    27    28    1
    17    28    29   am
    18    29    30    2
    19    29    32    1
    20    32    33    1
    21    33    34    1
    22    34    35   ar
    23    35    36   ar
    24    36    37   ar
    25    37    38   ar
    26     2     3   am
    27     3     4    2
    28     3     5    1
    29     5     6   ar
    30     6     7   ar
    31     7     8   ar
    32     8     9   ar
    33     9    10   ar
    34    10    14    1
    35    14    15   ar
    36    15    16   ar
    37    16    17   ar
    38    17    18   ar
    39    18    19   ar
    40    10    11   ar
    41    11    12   ar
    42    12    13   ar
    43    45    40   ar
    44    38    34   ar
    45    13     5   ar
    46    12     8   ar
    47    19    14   ar
    48    25    26    1
    49    28    31    1
@<TRIPOS>MOLECULE
*****
 45 49 0 0 0
SMALL
GASTEIGER

@<TRIPOS>ATOM
      1 C          62.5734   88.9015   11.4786 C.3     1  UNL1        0.1245
      2 N          63.2351   89.7436   12.5289 N.am    1  UNL1       -0.2735
      3 C          63.8906   89.0914   13.7100 C.2     1  UNL1        0.2492
      4 O          64.5522   89.9335   14.7603 O.2     1  UNL1       -0.2699
      5 C          63.8845   87.5971   13.8407 C.ar    1  UNL1        0.0567
      6 C          64.2886   86.9558   15.1351 C.ar    1  UNL1        0.0063
      7 C          64.2825   85.4616   15.2658 C.ar    1  UNL1        0.0225
      8 C          63.8723   84.6086   14.1021 C.ar    1  UNL1        0.1189
      9 N          63.7687   83.1215   13.9350 N.ar    1  UNL1       -0.2083
     10 C          63.3005   82.8437   12.5373 C.ar    1  UNL1        0.2297
     11 O          63.1148   84.1591   11.8406 O.2     1  UNL1       -0.4346
     12 C          63.4683   85.2498   12.8078 C.ar    1  UNL1        0.1649
     13 C          63.4744   86.7441   12.6771 C.ar    1  UNL1        0.0436
     14 C          63.0602   81.4885   11.9408 C.ar    1  UNL1        0.0536
     15 C          62.6547   80.3431   12.8205 C.ar    1  UNL1        0.0046
     16 C          62.4144   78.9879   12.2242 C.ar    1  UNL1        0.0002
     17 C          62.5795   78.7781   10.7482 C.ar    1  UNL1        0.0000
     18 C          62.9849   79.9235    9.8685 C.ar    1  UNL1        0.0002
     19 C          63.2252   81.2786   10.4648 C.ar    1  UNL1        0.0046
     20 C          63.2412   91.2379   12.3982 C.3     1  UNL1        0.0937
     21 C          64.6292   92.2249   10.4363 C.3     1  UNL1        0.0018
     22 C          64.4685   91.9422   11.9006 C.3     1  UNL1        0.0199
     23 C          65.5351   92.3639   12.8674 C.3     1  UNL1        0.0018
     24 C          61.1862   89.2340   11.0149 C.3     1  UNL1        0.1484
     25 O          60.3103   90.1234   11.8466 O.3     1  UNL1       -0.3810
     26 H          60.7898   90.3941   12.6451 H       1  UNL1        0.2105
     27 C          60.6748   88.6771    9.7193 C.3     1  UNL1        0.1075
     28 N          60.5285   89.5717    8.5241 N.am    1  UNL1       -0.2695
     29 C          59.4395   89.3160    7.5248 C.2     1  UNL1        0.4020
     30 O          58.4968   88.1657    7.7207 O.2     1  UNL1       -0.2264
     31 H          61.1472   90.3266    8.3956 H       1  UNL1        0.1528
     32 O          59.2931   90.2105    6.3297 O.3     1  UNL1       -0.4291
     33 C          60.5043   90.6145    5.5424 C.3     1  UNL1        0.2447
     34 C          60.3684   91.5717    4.3955 C.ar    1  UNL1        0.0714
     35 C          59.1192   92.3018    3.9998 C.ar    1  UNL1        0.1053
     36 N          59.4365   93.1481    2.8027 N.ar    1  UNL1       -0.2350
     37 C          60.8817   92.9410    2.4585 C.ar    1  UNL1        0.1343
     38 S          61.4576   91.9667    3.4429 S.2     1  UNL1       -0.0652
     39 C          60.3099   87.2257    9.6190 C.3     1  UNL1        0.0485
     40 C          61.1094   86.3104    8.7397 C.ar    1  UNL1       -0.0204
     41 C          62.5262   85.9738    9.0991 C.ar    1  UNL1       -0.0042
     42 C          63.3257   85.0584    8.2198 C.ar    1  UNL1       -0.0003
     43 C          62.7083   84.4798    6.9813 C.ar    1  UNL1       -0.0000
     44 C          61.2914   84.8164    6.6220 C.ar    1  UNL1       -0.0003
     45 C          60.4920   85.7317    7.5012 C.ar    1  UNL1       -0.0042
@<TRIPOS>BOND
     1    21    22    1
     2    22    23    1
     3    22    20    1
     4    20     2    1
     5     2     1    1
     6     1    24    1
     7    24    25    1
     8    24    27    1
     9    27    39    1
    10    39    40    1
    11    40    41   ar
    12    41    42   ar
    13    42    43   ar
    14    43    44   ar
    15    44    45   ar
    16    27    28    1
    17    28    29   am
    18    29    30    2
    19    29    32    1
    20    32    33    1
    21    33    34    1
    22    34    35   ar
    23    35    36   ar
    24    36    37   ar
    25    37    38   ar
    26     2     3   am
    27     3     4    2
    28     3     5    1
    29     5     6   ar
    30     6     7   ar
    31     7     8   ar
    32     8     9   ar
    33     9    10   ar
    34    10    14    1
    35    14    15   ar
    36    15    16   ar
    37    16    17   ar
    38    17    18   ar
    39    18    19   ar
    40    10    11   ar
    41    11    12   ar
    42    12    13   ar
    43    45    40   ar
    44    38    34   ar
    45    13     5   ar
    46    12     8   ar
    47    19    14   ar
    48    25    26    1
    49    28    31    1
@<TRIPOS>MOLECULE
*****
 45 49 0 0 0
SMALL
GASTEIGER

@<TRIPOS>ATOM
      1 C          63.8804   89.9531   12.2408 C.3     1  UNL1        0.1245
      2 N          64.4151   90.8875   13.2853 N.am    1  UNL1       -0.2735
      3 C          64.4803   90.4514   14.7190 C.2     1  UNL1        0.2492
      4 O          65.0151   91.3857   15.7636 O.2     1  UNL1       -0.2699
      5 C          64.0109   89.0809   15.1082 C.ar    1  UNL1        0.0567
      6 C          63.4041   88.8519   16.4608 C.ar    1  UNL1        0.0063
      7 C          62.9347   87.4815   16.8499 C.ar    1  UNL1        0.0225
      8 C          63.0720   86.3400   15.8865 C.ar    1  UNL1        0.1189
      9 N          62.7020   84.8899   15.9892 N.ar    1  UNL1       -0.2083
     10 C          63.0802   84.2227   14.7001 C.ar    1  UNL1        0.2297
     11 O          63.6838   85.2604   13.8007 O.2     1  UNL1       -0.4346
     12 C          63.6787   86.5689   14.5339 C.ar    1  UNL1        0.1649
     13 C          64.1481   87.9394   14.1448 C.ar    1  UNL1        0.0436
     14 C          62.8884   82.7724   14.3685 C.ar    1  UNL1        0.0536
     15 C          64.0612   81.9382   13.9459 C.ar    1  UNL1        0.0046
     16 C          63.8695   80.4880   13.6143 C.ar    1  UNL1        0.0002
     17 C          62.5050   79.8719   13.7053 C.ar    1  UNL1        0.0000
     18 C          61.3321   80.7060   14.1279 C.ar    1  UNL1        0.0002
     19 C          61.5238   82.1563   14.4595 C.ar    1  UNL1        0.0046
     20 C          64.8846   92.2580   12.8961 C.3     1  UNL1        0.0937
     21 C          66.5377   92.8613   10.9849 C.3     1  UNL1        0.0018
     22 C          66.2887   92.4593   12.4083 C.3     1  UNL1        0.0199
     23 C          67.4438   92.2587   13.3441 C.3     1  UNL1        0.0018
     24 C          62.4225   89.6002   12.2258 C.3     1  UNL1        0.1484
     25 O          61.5278   90.0609   13.3381 O.3     1  UNL1       -0.3810
     26 H          62.0463   90.5709   13.9799 H       1  UNL1        0.2105
     27 C          61.8594   88.7865   11.0985 C.3     1  UNL1        0.1075
     28 N          61.7281   89.3892    9.7311 N.am    1  UNL1       -0.2695
     29 C          60.5093   89.1102    8.9024 C.2     1  UNL1        0.4020
     30 O          59.4218   88.2284    9.4411 O.2     1  UNL1       -0.2264
     31 H          62.4418   89.9679    9.3776 H       1  UNL1        0.1528
     32 O          60.3779   89.7128    7.5352 O.3     1  UNL1       -0.4291
     33 C          59.1270   89.4950    6.7366 C.3     1  UNL1        0.2447
     34 C          58.6910   90.5194    5.7312 C.ar    1  UNL1        0.0714
     35 C          57.2737   90.8766    5.3943 C.ar    1  UNL1        0.1053
     36 N          57.3025   91.9444    4.3412 N.ar    1  UNL1       -0.2350
     37 C          58.7378   92.2470    4.0272 C.ar    1  UNL1        0.1343
     38 S          59.5959   91.3663    4.8863 S.2     1  UNL1       -0.0652
     39 C          61.4277   87.3702   11.3384 C.3     1  UNL1        0.0485
     40 C          62.1139   86.2453   10.6216 C.ar    1  UNL1       -0.0204
     41 C          62.4692   84.9901   11.3619 C.ar    1  UNL1       -0.0042
     42 C          63.1553   83.8652   10.6450 C.ar    1  UNL1       -0.0003
     43 C          63.4861   83.9956    9.1878 C.ar    1  UNL1       -0.0000
     44 C          63.1308   85.2509    8.4474 C.ar    1  UNL1       -0.0003
     45 C          62.4447   86.3757    9.1643 C.ar    1  UNL1       -0.0042
@<TRIPOS>BOND
     1    21    22    1
     2    22    23    1
     3    22    20    1
     4    20     2    1
     5     2     1    1
     6     1    24    1
     7    24    25    1
     8    24    27    1
     9    27    39    1
    10    39    40    1
    11    40    41   ar
    12    41    42   ar
    13    42    43   ar
    14    43    44   ar
    15    44    45   ar
    16    27    28    1
    17    28    29   am
    18    29    30    2
    19    29    32    1
    20    32    33    1
    21    33    34    1
    22    34    35   ar
    23    35    36   ar
    24    36    37   ar
    25    37    38   ar
    26     2     3   am
    27     3     4    2
    28     3     5    1
    29     5     6   ar
    30     6     7   ar
    31     7     8   ar
    32     8     9   ar
    33     9    10   ar
    34    10    14    1
    35    14    15   ar
    36    15    16   ar
    37    16    17   ar
    38    17    18   ar
    39    18    19   ar
    40    10    11   ar
    41    11    12   ar
    42    12    13   ar
    43    45    40   ar
    44    38    34   ar
    45    13     5   ar
    46    12     8   ar
    47    19    14   ar
    48    25    26    1
    49    28    31    1
@<TRIPOS>MOLECULE
*****
 45 49 0 0 0
SMALL
GASTEIGER

@<TRIPOS>ATOM
      1 C          64.9241   90.5637   13.4140 C.3     1  UNL1        0.1245
      2 N          64.9940   91.3813   14.6697 N.am    1  UNL1       -0.2735
      3 C          64.5238   90.8002   15.9701 C.2     1  UNL1        0.2492
      4 O          64.5937   91.6179   17.2258 O.2     1  UNL1       -0.2699
      5 C          63.9837   89.4015   16.0150 C.ar    1  UNL1        0.0567
      6 C          63.1135   88.9699   17.1580 C.ar    1  UNL1        0.0063
      7 C          62.5735   87.5712   17.2028 C.ar    1  UNL1        0.0225
      8 C          62.9037   86.6042   16.1047 C.ar    1  UNL1        0.1189
      9 N          62.5195   85.1717   15.8796 N.ar    1  UNL1       -0.2083
     10 C          63.1522   84.7181   14.5975 C.ar    1  UNL1        0.2297
     11 O          63.9275   85.8702   14.0302 O.2     1  UNL1       -0.4346
     12 C          63.7738   87.0358   14.9618 C.ar    1  UNL1        0.1649
     13 C          64.3139   88.4345   14.9169 C.ar    1  UNL1        0.0436
     14 C          63.0311   83.3523   13.9894 C.ar    1  UNL1        0.0536
     15 C          62.0717   82.3556   14.5692 C.ar    1  UNL1        0.0046
     16 C          61.9505   80.9898   13.9611 C.ar    1  UNL1        0.0002
     17 C          62.7887   80.6206   12.7732 C.ar    1  UNL1        0.0000
     18 C          63.7481   81.6173   12.1934 C.ar    1  UNL1        0.0002
     19 C          63.8693   82.9831   12.8015 C.ar    1  UNL1        0.0046
     20 C          65.5340   92.7800   14.6248 C.3     1  UNL1        0.0937
     21 C          67.8672   92.7318   13.4828 C.3     1  UNL1        0.0018
     22 C          67.0144   93.0146   14.6839 C.3     1  UNL1        0.0199
     23 C          67.6420   93.5321   15.9443 C.3     1  UNL1        0.0018
     24 C          63.6937   90.6088   12.5572 C.3     1  UNL1        0.1484
     25 O          62.4374   89.9273   13.0124 O.3     1  UNL1       -0.3810
     26 H          62.5905   89.5087   13.8739 H       1  UNL1        0.2105
     27 C          63.7196   91.3353   11.2452 C.3     1  UNL1        0.1075
     28 N          63.1531   90.6864   10.0171 N.am    1  UNL1       -0.2695
     29 C          61.6818   90.4088    9.9264 C.2     1  UNL1        0.4020
     30 O          60.7770   90.7802   11.0638 O.2     1  UNL1       -0.2264
     31 H          63.7470   90.4427    9.2707 H       1  UNL1        0.1528
     32 O          61.1153   89.7599    8.6985 O.3     1  UNL1       -0.4291
     33 C          60.4477   88.4204    8.7982 C.3     1  UNL1        0.2447
     34 C          61.0444   87.3474    9.6601 C.ar    1  UNL1        0.0714
     35 C          60.7765   87.1396   11.1213 C.ar    1  UNL1        0.1053
     36 N          61.5802   85.9576   11.5764 N.ar    1  UNL1       -0.2350
     37 C          62.3448   85.4350   10.3964 C.ar    1  UNL1        0.1343
     38 S          62.0136   86.2939    9.2121 S.2     1  UNL1       -0.0652
     39 C          64.3120   92.7108   11.1611 C.3     1  UNL1        0.0485
     40 C          65.6600   92.9098   10.5339 C.ar    1  UNL1       -0.0204
     41 C          66.0490   94.2580   10.0040 C.ar    1  UNL1       -0.0042
     42 C          67.3970   94.4569    9.3768 C.ar    1  UNL1       -0.0003
     43 C          68.3559   93.3076    9.2795 C.ar    1  UNL1       -0.0000
     44 C          67.9669   91.9593    9.8094 C.ar    1  UNL1       -0.0003
     45 C          66.6190   91.7604   10.4366 C.ar    1  UNL1       -0.0042
@<TRIPOS>BOND
     1    21    22    1
     2    22    23    1
     3    22    20    1
     4    20     2    1
     5     2     1    1
     6     1    24    1
     7    24    25    1
     8    24    27    1
     9    27    39    1
    10    39    40    1
    11    40    41   ar
    12    41    42   ar
    13    42    43   ar
    14    43    44   ar
    15    44    45   ar
    16    27    28    1
    17    28    29   am
    18    29    30    2
    19    29    32    1
    20    32    33    1
    21    33    34    1
    22    34    35   ar
    23    35    36   ar
    24    36    37   ar
    25    37    38   ar
    26     2     3   am
    27     3     4    2
    28     3     5    1
    29     5     6   ar
    30     6     7   ar
    31     7     8   ar
    32     8     9   ar
    33     9    10   ar
    34    10    14    1
    35    14    15   ar
    36    15    16   ar
    37    16    17   ar
    38    17    18   ar
    39    18    19   ar
    40    10    11   ar
    41    11    12   ar
    42    12    13   ar
    43    45    40   ar
    44    38    34   ar
    45    13     5   ar
    46    12     8   ar
    47    19    14   ar
    48    25    26    1
    49    28    31    1
@<TRIPOS>MOLECULE
*****
 45 49 0 0 0
SMALL
GASTEIGER

@<TRIPOS>ATOM
      1 C          62.4209   87.5496   10.3526 C.3     1  UNL1        0.1245
      2 N          61.1197   88.2814   10.2067 N.am    1  UNL1       -0.2735
      3 C          61.0658   89.7653   10.4191 C.2     1  UNL1        0.2492
      4 O          59.7646   90.4971   10.2732 O.2     1  UNL1       -0.2699
      5 C          62.3132   90.5175   10.7775 C.ar    1  UNL1        0.0567
      6 C          63.0047   91.3580    9.7455 C.ar    1  UNL1        0.0063
      7 C          64.2521   92.1101   10.1039 C.ar    1  UNL1        0.0225
      8 C          64.8078   92.0217   11.4943 C.ar    1  UNL1        0.1189
      9 N          66.0116   92.6459   12.1356 N.ar    1  UNL1       -0.2083
     10 C          66.0640   92.1911   13.5640 C.ar    1  UNL1        0.2297
     11 O          64.8926   91.2858   13.8055 O.2     1  UNL1       -0.4346
     12 C          64.1162   91.1811   12.5263 C.ar    1  UNL1        0.1649
     13 C          62.8689   90.4290   12.1679 C.ar    1  UNL1        0.0436
     14 C          67.1050   92.5743   14.5738 C.ar    1  UNL1        0.0536
     15 C          67.4752   94.0160   14.7592 C.ar    1  UNL1        0.0046
     16 C          68.5162   94.3992   15.7688 C.ar    1  UNL1        0.0002
     17 C          69.1870   93.3407   16.5931 C.ar    1  UNL1        0.0000
     18 C          68.8168   91.8990   16.4078 C.ar    1  UNL1        0.0002
     19 C          67.7758   91.5158   15.3981 C.ar    1  UNL1        0.0046
     20 C          59.8723   87.5292    9.8483 C.3     1  UNL1        0.0937
     21 C          58.8349   88.1215    7.5412 C.3     1  UNL1        0.0018
     22 C          59.5967   87.1722    8.4177 C.3     1  UNL1        0.0199
     23 C          60.0830   85.8658    7.8637 C.3     1  UNL1        0.0018
     24 C          62.8201   86.9879   11.6850 C.3     1  UNL1        0.1484
     25 O          63.4301   87.8819   12.7236 O.3     1  UNL1       -0.3810
     26 H          63.4952   88.7848   12.3751 H       1  UNL1        0.2105
     27 C          62.6094   85.5321   11.9787 C.3     1  UNL1        0.1075
     28 N          62.3557   85.0800   13.3864 N.am    1  UNL1       -0.2695
     29 C          63.4869   84.5585   14.2220 C.2     1  UNL1        0.4020
     30 O          64.8719   84.4889   13.6500 O.2     1  UNL1       -0.2264
     31 H          61.4467   85.1257   13.7618 H       1  UNL1        0.1528
     32 O          63.2332   84.1064   15.6295 O.3     1  UNL1       -0.4291
     33 C          63.3809   85.0740   16.7662 C.3     1  UNL1        0.2447
     34 C          63.4217   86.5488   16.4951 C.ar    1  UNL1        0.0714
     35 C          64.1464   87.2179   15.3649 C.ar    1  UNL1        0.1053
     36 N          63.9175   88.6960   15.4780 N.ar    1  UNL1       -0.2350
     37 C          63.0514   88.9405   16.6780 C.ar    1  UNL1        0.1343
     38 S          62.7450   87.6135   17.3066 S.2     1  UNL1       -0.0652
     39 C          62.6524   84.5284   10.8649 C.3     1  UNL1        0.0485
     40 C          62.7234   83.0632   11.1781 C.ar    1  UNL1       -0.0204
     41 C          63.3543   82.1169   10.2001 C.ar    1  UNL1       -0.0042
     42 C          63.4252   80.6516   10.5133 C.ar    1  UNL1       -0.0003
     43 C          62.8652   80.1327   11.8044 C.ar    1  UNL1       -0.0000
     44 C          62.2343   81.0790   12.7824 C.ar    1  UNL1       -0.0003
     45 C          62.1634   82.5442   12.4693 C.ar    1  UNL1       -0.0042
@<TRIPOS>BOND
     1    21    22    1
     2    22    23    1
     3    22    20    1
     4    20     2    1
     5     2     1    1
     6     1    24    1
     7    24    25    1
     8    24    27    1
     9    27    39    1
    10    39    40    1
    11    40    41   ar
    12    41    42   ar
    13    42    43   ar
    14    43    44   ar
    15    44    45   ar
    16    27    28    1
    17    28    29   am
    18    29    30    2
    19    29    32    1
    20    32    33    1
    21    33    34    1
    22    34    35   ar
    23    35    36   ar
    24    36    37   ar
    25    37    38   ar
    26     2     3   am
    27     3     4    2
    28     3     5    1
    29     5     6   ar
    30     6     7   ar
    31     7     8   ar
    32     8     9   ar
    33     9    10   ar
    34    10    14    1
    35    14    15   ar
    36    15    16   ar
    37    16    17   ar
    38    17    18   ar
    39    18    19   ar
    40    10    11   ar
    41    11    12   ar
    42    12    13   ar
    43    45    40   ar
    44    38    34   ar
    45    13     5   ar
    46    12     8   ar
    47    19    14   ar
    48    25    26    1
    49    28    31    1
@<TRIPOS>MOLECULE
*****
 45 49 0 0 0
SMALL
GASTEIGER

@<TRIPOS>ATOM
      1 C          63.6280   88.7162   12.6432 C.3     1  UNL1        0.1245
      2 N          63.6430   87.3520   13.2667 N.am    1  UNL1       -0.2735
      3 C          62.9497   86.2089   12.5866 C.2     1  UNL1        0.2492
      4 O          62.9647   84.8447   13.2101 O.2     1  UNL1       -0.2699
      5 C          62.2413   86.4300   11.2829 C.ar    1  UNL1        0.0567
      6 C          61.8933   85.2603   10.4107 C.ar    1  UNL1        0.0063
      7 C          61.1850   85.4814    9.1072 C.ar    1  UNL1        0.0225
      8 C          60.8246   86.8721    8.6758 C.ar    1  UNL1        0.1189
      9 N          60.1303   87.3957    7.4535 N.ar    1  UNL1       -0.2083
     10 C          60.0492   88.8889    7.5704 C.ar    1  UNL1        0.2297
     11 O          60.6934   89.2882    8.8649 O.2     1  UNL1       -0.4346
     12 C          61.1727   88.0418    9.5480 C.ar    1  UNL1        0.1649
     13 C          61.8810   87.8207   10.8516 C.ar    1  UNL1        0.0436
     14 C          59.4321   89.8195    6.5687 C.ar    1  UNL1        0.0536
     15 C          60.3073   90.6730    5.6994 C.ar    1  UNL1        0.0046
     16 C          59.6904   91.6035    4.6978 C.ar    1  UNL1        0.0002
     17 C          58.1983   91.6807    4.5654 C.ar    1  UNL1        0.0000
     18 C          57.3231   90.8273    5.4347 C.ar    1  UNL1        0.0002
     19 C          57.9400   89.8967    6.4364 C.ar    1  UNL1        0.0046
     20 C          64.3514   87.1310   14.5703 C.3     1  UNL1        0.0937
     21 C          63.1294   85.5993   16.2764 C.3     1  UNL1        0.0018
     22 C          63.5613   86.9662   15.8347 C.3     1  UNL1        0.0199
     23 C          63.2030   88.1683   16.6573 C.3     1  UNL1        0.0018
     24 C          63.4149   89.9297   13.4989 C.3     1  UNL1        0.1484
     25 O          62.0953   90.1458   14.1786 O.3     1  UNL1       -0.3810
     26 H          61.4964   89.4142   13.9619 H       1  UNL1        0.2105
     27 C          64.5214   90.9269   13.6750 C.3     1  UNL1        0.1075
     28 N          65.0134   91.7168   12.4985 N.am    1  UNL1       -0.2695
     29 C          64.1284   91.9120   11.3032 C.2     1  UNL1        0.4020
     30 O          62.7514   91.3172   11.2844 O.2     1  UNL1       -0.2264
     31 H          65.9172   92.1072   12.5108 H       1  UNL1        0.1528
     32 O          64.6204   92.7018   10.1268 O.3     1  UNL1       -0.4291
     33 C          66.0658   93.0927   10.0373 C.3     1  UNL1        0.2447
     34 C          66.4527   94.5420   10.0456 C.ar    1  UNL1        0.0714
     35 C          66.1554   95.5277   11.1366 C.ar    1  UNL1        0.1053
     36 N          66.7237   96.8548   10.7297 N.ar    1  UNL1       -0.2350
     37 C          67.3722   96.6894    9.3872 C.ar    1  UNL1        0.1343
     38 S          67.2047   95.2600    8.9645 S.2     1  UNL1       -0.0652
     39 C          65.1360   91.1343   15.0275 C.3     1  UNL1        0.0485
     40 C          66.4753   91.7987   15.1488 C.ar    1  UNL1       -0.0204
     41 C          67.5626   91.4794   14.1660 C.ar    1  UNL1       -0.0042
     42 C          68.9021   92.1438   14.2873 C.ar    1  UNL1       -0.0003
     43 C          69.1541   93.1274   15.3914 C.ar    1  UNL1       -0.0000
     44 C          68.0668   93.4467   16.3741 C.ar    1  UNL1       -0.0003
     45 C          66.7274   92.7823   16.2528 C.ar    1  UNL1       -0.0042
@<TRIPOS>BOND
     1    21    22    1
     2    22    23    1
     3    22    20    1
     4    20     2    1
     5     2     1    1
     6     1    24    1
     7    24    25    1
     8    24    27    1
     9    27    39    1
    10    39    40    1
    11    40    41   ar
    12    41    42   ar
    13    42    43   ar
    14    43    44   ar
    15    44    45   ar
    16    27    28    1
    17    28    29   am
    18    29    30    2
    19    29    32    1
    20    32    33    1
    21    33    34    1
    22    34    35   ar
    23    35    36   ar
    24    36    37   ar
    25    37    38   ar
    26     2     3   am
    27     3     4    2
    28     3     5    1
    29     5     6   ar
    30     6     7   ar
    31     7     8   ar
    32     8     9   ar
    33     9    10   ar
    34    10    14    1
    35    14    15   ar
    36    15    16   ar
    37    16    17   ar
    38    17    18   ar
    39    18    19   ar
    40    10    11   ar
    41    11    12   ar
    42    12    13   ar
    43    45    40   ar
    44    38    34   ar
    45    13     5   ar
    46    12     8   ar
    47    19    14   ar
    48    25    26    1
    49    28    31    1
