@<TRIPOS>MOLECULE
*****
 48 51 0 0 0
SMALL
GASTEIGER

@<TRIPOS>ATOM
      1 N          63.5247   86.5395   13.2751 N.ar    1  UNL1       -0.2470
      2 C          63.0189   86.0309   11.9577 C.ar    1  UNL1        0.2654
      3 O          63.0051   84.5573   11.6780 O.2     1  UNL1       -0.2668
      4 C          62.5270   86.9959   10.9201 C.ar    1  UNL1        0.0703
      5 C          62.5408   88.4695   11.1999 C.ar    1  UNL1        0.0465
      6 C          62.1582   89.0661   10.3671 C.3     1  UNL1        0.0503
      7 N          63.0466   88.9781   12.5172 N.ar    1  UNL1       -0.2806
      8 C          63.5386   88.0131   13.5548 C.ar    1  UNL1        0.3338
      9 O          64.0444   88.5217   14.8723 O.2     1  UNL1       -0.2462
     10 C          62.0211   86.4873    9.6027 C.ar    1  UNL1        0.0362
     11 C          62.9051   85.6396    8.7366 C.ar    1  UNL1        0.0026
     12 C          62.3993   85.1310    7.4193 C.ar    1  UNL1        0.0033
     13 C          61.0096   85.4702    6.9679 C.ar    1  UNL1        0.0392
     14 C          60.1257   86.3180    7.8339 C.ar    1  UNL1        0.1658
     15 C          60.6315   86.8265    9.1514 C.ar    1  UNL1        0.1739
     16 F          59.7476   87.6743   10.0174 F       1  UNL1       -0.2010
     17 O          58.7360   86.6571    7.3826 O.3     1  UNL1       -0.4731
     18 C          58.3422   88.0902    7.1797 C.3     1  UNL1        0.2081
     19 C          59.3413   89.0745    6.6475 C.3     1  UNL1        0.0794
     20 C          58.8816   90.2330    5.8131 C.3     1  UNL1        0.1465
     21 O          59.8880   91.1478    5.1806 O.3     1  UNL1       -0.3476
     22 C          59.4282   92.3326    4.3837 C.3     1  UNL1        0.1835
     23 C          60.1604   92.7266    3.1353 C.2     1  UNL1        0.0801
     24 O          61.6183   92.4062    2.9881 O.co2   1  UNL1       -0.5466
     25 O          59.4346   93.4412    2.0340 O.co2   1  UNL1       -0.5466
     26 C          64.0167   85.5745   14.3128 C.3     1  UNL1        0.1337
     27 C          63.0509   84.6555   15.0002 C.3     1  UNL1        0.1000
     28 C          62.9013   83.2382   14.5320 C.ar    1  UNL1       -0.0061
     29 C          61.5731   82.5495   14.6382 C.ar    1  UNL1       -0.0029
     30 C          61.4235   81.1323   14.1699 C.ar    1  UNL1       -0.0003
     31 C          62.6023   80.4039   13.5955 C.ar    1  UNL1       -0.0000
     32 C          63.9305   81.0926   13.4893 C.ar    1  UNL1       -0.0003
     33 C          64.0801   82.5098   13.9576 C.ar    1  UNL1       -0.0029
     34 C          62.8670   86.0248   17.2005 C.3     1  UNL1        0.0861
     35 N          62.2346   85.1536   16.1558 N.3     1  UNL1       -0.2924
     36 H          61.4580   85.6840   15.7609 H       1  UNL1        0.1236
     37 C          63.0605   90.4518   12.7970 C.3     1  UNL1        0.1391
     38 C          64.2327   91.2850   12.3711 C.ar    1  UNL1        0.0319
     39 C          64.3927   91.6743   10.9313 C.ar    1  UNL1        0.1379
     40 F          63.7285   91.4158   10.1020 F       1  UNL1       -0.2044
     41 C          65.5650   92.5076   10.5055 C.ar    1  UNL1        0.0294
     42 C          66.5773   92.9516   11.5194 C.ar    1  UNL1        0.0022
     43 C          66.4174   92.5623   12.9591 C.ar    1  UNL1        0.0037
     44 C          65.2451   91.7290   13.3850 C.ar    1  UNL1        0.0714
     45 C          65.0852   91.3397   14.8247 C.3     1  UNL1        0.4184
     46 F          64.9253   90.9504   16.2645 F       1  UNL1       -0.1659
     47 F          63.6828   91.8717   14.8128 F       1  UNL1       -0.1659
     48 F          66.4876   90.8077   14.8367 F       1  UNL1       -0.1659
@<TRIPOS>UNITY_ATOM_ATTR
24 1
charge -1
@<TRIPOS>BOND
     1    34    35    1
     2    35    27    1
     3    27    26    1
     4    26     1    1
     5     1     2   ar
     6     2     3    2
     7     2     4   ar
     8     4    10    1
     9    10    11   ar
    10    11    12   ar
    11    12    13   ar
    12    13    14   ar
    13    14    17    1
    14    17    18    1
    15    18    19    1
    16    19    20    1
    17    20    21    1
    18    21    22    1
    19    22    23    1
    20    23    24   ar
    21    23    25   ar
    22    14    15   ar
    23    15    16    1
    24     4     5   ar
    25     5     6    1
    26     5     7   ar
    27     7    37    1
    28    37    38    1
    29    38    39   ar
    30    39    40    1
    31    39    41   ar
    32    41    42   ar
    33    42    43   ar
    34    43    44   ar
    35    44    45    1
    36    45    46    1
    37    45    47    1
    38    45    48    1
    39     7     8   ar
    40     8     9    2
    41    27    28    1
    42    28    29   ar
    43    29    30   ar
    44    30    31   ar
    45    31    32   ar
    46    32    33   ar
    47     8     1   ar
    48    33    28   ar
    49    15    10   ar
    50    44    38   ar
    51    35    36    1
@<TRIPOS>MOLECULE
*****
 48 51 0 0 0
SMALL
GASTEIGER

@<TRIPOS>ATOM
      1 N          61.7202   87.0819   11.8038 N.ar    1  UNL1       -0.2470
      2 C          62.1126   88.2538   12.6539 C.ar    1  UNL1        0.2654
      3 O          61.3855   89.5584   12.5145 O.2     1  UNL1       -0.2668
      4 C          63.2323   88.1212   13.6432 C.ar    1  UNL1        0.0703
      5 C          63.9594   86.8166   13.7825 C.ar    1  UNL1        0.0465
      6 C          64.7523   86.8477   14.5349 C.3     1  UNL1        0.0503
      7 N          63.5669   85.6447   12.9325 N.ar    1  UNL1       -0.2806
      8 C          62.4473   85.7774   11.9432 C.ar    1  UNL1        0.3338
      9 O          62.0548   84.6054   11.0931 O.2     1  UNL1       -0.2462
     10 C          63.6248   89.2931   14.4933 C.ar    1  UNL1        0.0362
     11 C          63.2463   89.3272   15.9443 C.ar    1  UNL1        0.0026
     12 C          63.6388   90.4991   16.7944 C.ar    1  UNL1        0.0033
     13 C          64.4098   91.6369   16.1934 C.ar    1  UNL1        0.0392
     14 C          64.7883   91.6027   14.7424 C.ar    1  UNL1        0.1658
     15 C          64.3957   90.4308   13.8923 C.ar    1  UNL1        0.1739
     16 F          64.7742   90.3966   12.4412 F       1  UNL1       -0.2010
     17 O          65.5592   92.7404   14.1414 O.3     1  UNL1       -0.4731
     18 C          66.8581   92.4777   13.4386 C.3     1  UNL1        0.2081
     19 C          66.9445   92.6126   11.9471 C.3     1  UNL1        0.0794
     20 C          65.8212   93.2514   11.1855 C.3     1  UNL1        0.1465
     21 O          65.7403   94.7455   11.0810 O.3     1  UNL1       -0.3476
     22 C          66.8223   95.5077   10.3750 C.3     1  UNL1        0.1835
     23 C          67.5520   94.8815    9.2238 C.2     1  UNL1        0.0801
     24 O          68.7670   94.0385    9.4752 O.co2   1  UNL1       -0.5466
     25 O          67.0668   95.0982    7.8210 O.co2   1  UNL1       -0.5466
     26 C          60.6005   87.2146   10.8144 C.3     1  UNL1        0.1337
     27 C          60.8993   87.5585    9.3853 C.3     1  UNL1        0.1000
     28 C          61.3178   86.4832    8.4268 C.ar    1  UNL1       -0.0061
     29 C          62.7375   85.9991    8.4161 C.ar    1  UNL1       -0.0029
     30 C          63.1560   84.9238    7.4576 C.ar    1  UNL1       -0.0003
     31 C          62.1548   84.3327    6.5099 C.ar    1  UNL1       -0.0000
     32 C          60.7351   84.8168    6.5206 C.ar    1  UNL1       -0.0003
     33 C          60.3167   85.8921    7.4791 C.ar    1  UNL1       -0.0029
     34 C          59.7734   89.3362    7.8615 C.3     1  UNL1        0.0861
     35 N          60.7796   88.9777    8.9146 N.3     1  UNL1       -0.2924
     36 H          60.5609   89.5426    9.7353 H       1  UNL1        0.1236
     37 C          64.2940   84.3401   13.0718 C.3     1  UNL1        0.1391
     38 C          63.5215   83.0597   13.1885 C.ar    1  UNL1        0.0319
     39 C          63.6191   82.0238   12.1079 C.ar    1  UNL1        0.1379
     40 F          64.2140   82.0819   11.1923 F       1  UNL1       -0.2044
     41 C          62.8466   80.7433   12.2246 C.ar    1  UNL1        0.0294
     42 C          61.9766   80.4987   13.4217 C.ar    1  UNL1        0.0022
     43 C          61.8790   81.5345   14.5022 C.ar    1  UNL1        0.0037
     44 C          62.6515   82.8150   14.3856 C.ar    1  UNL1        0.0714
     45 C          62.5539   83.8509   15.4661 C.3     1  UNL1        0.4184
     46 F          62.4563   84.8867   16.5466 F       1  UNL1       -0.1659
     47 F          63.8582   83.3785   16.0367 F       1  UNL1       -0.1659
     48 F          61.2496   84.3232   14.8955 F       1  UNL1       -0.1659
@<TRIPOS>UNITY_ATOM_ATTR
24 1
charge -1
@<TRIPOS>BOND
     1    34    35    1
     2    35    27    1
     3    27    26    1
     4    26     1    1
     5     1     2   ar
     6     2     3    2
     7     2     4   ar
     8     4    10    1
     9    10    11   ar
    10    11    12   ar
    11    12    13   ar
    12    13    14   ar
    13    14    17    1
    14    17    18    1
    15    18    19    1
    16    19    20    1
    17    20    21    1
    18    21    22    1
    19    22    23    1
    20    23    24   ar
    21    23    25   ar
    22    14    15   ar
    23    15    16    1
    24     4     5   ar
    25     5     6    1
    26     5     7   ar
    27     7    37    1
    28    37    38    1
    29    38    39   ar
    30    39    40    1
    31    39    41   ar
    32    41    42   ar
    33    42    43   ar
    34    43    44   ar
    35    44    45    1
    36    45    46    1
    37    45    47    1
    38    45    48    1
    39     7     8   ar
    40     8     9    2
    41    27    28    1
    42    28    29   ar
    43    29    30   ar
    44    30    31   ar
    45    31    32   ar
    46    32    33   ar
    47     8     1   ar
    48    33    28   ar
    49    15    10   ar
    50    44    38   ar
    51    35    36    1
@<TRIPOS>MOLECULE
*****
 48 51 0 0 0
SMALL
GASTEIGER

@<TRIPOS>ATOM
      1 N          63.5910   86.1830   13.4797 N.ar    1  UNL1       -0.2470
      2 C          63.1218   85.7318   12.1284 C.ar    1  UNL1        0.2654
      3 O          63.1177   84.2717   11.7847 O.2     1  UNL1       -0.2668
      4 C          62.6566   86.7408   11.1206 C.ar    1  UNL1        0.0703
      5 C          62.6606   88.2009   11.4643 C.ar    1  UNL1        0.0465
      6 C          62.2997   88.8328   10.6481 C.3     1  UNL1        0.0503
      7 N          63.1299   88.6520   12.8156 N.ar    1  UNL1       -0.2806
      8 C          63.5951   87.6431   13.8234 C.ar    1  UNL1        0.3338
      9 O          64.0644   88.0942   15.1748 O.2     1  UNL1       -0.2462
     10 C          62.1873   86.2897    9.7692 C.ar    1  UNL1        0.0362
     11 C          63.1184   85.5388    8.8641 C.ar    1  UNL1        0.0026
     12 C          62.6491   85.0876    7.5127 C.ar    1  UNL1        0.0033
     13 C          61.2487   85.3874    7.0664 C.ar    1  UNL1        0.0392
     14 C          60.3177   86.1383    7.9715 C.ar    1  UNL1        0.1658
     15 C          60.7869   86.5894    9.3229 C.ar    1  UNL1        0.1739
     16 F          59.8559   87.3403   10.2280 F       1  UNL1       -0.2010
     17 O          58.9173   86.4381    7.5252 O.3     1  UNL1       -0.4731
     18 C          58.4490   87.8598    7.4292 C.3     1  UNL1        0.2081
     19 C          59.4394   88.9615    7.1940 C.3     1  UNL1        0.0794
     20 C          59.4117   89.7329    5.9078 C.3     1  UNL1        0.1465
     21 O          58.9386   91.1563    5.8971 O.3     1  UNL1       -0.3476
     22 C          58.6251   91.8326    4.5954 C.3     1  UNL1        0.1835
     23 C          59.7371   92.3533    3.7338 C.2     1  UNL1        0.0801
     24 O          61.1537   91.9439    4.0090 O.co2   1  UNL1       -0.5466
     25 O          59.4325   93.2835    2.5971 O.co2   1  UNL1       -0.5466
     26 C          64.0563   85.1740   14.4875 C.3     1  UNL1        0.1337
     27 C          63.0682   84.2486   15.1335 C.3     1  UNL1        0.1000
     28 C          62.8385   82.8802   14.5634 C.ar    1  UNL1       -0.0061
     29 C          61.4511   82.3123   14.5122 C.ar    1  UNL1       -0.0029
     30 C          61.2215   80.9440   13.9421 C.ar    1  UNL1       -0.0003
     31 C          62.3792   80.1437   13.4232 C.ar    1  UNL1       -0.0000
     32 C          63.7665   80.7116   13.4744 C.ar    1  UNL1       -0.0003
     33 C          63.9962   82.0799   14.0445 C.ar    1  UNL1       -0.0029
     34 C          62.7471   85.9128   17.1026 C.3     1  UNL1        0.0861
     35 N          62.3098   84.6914   16.3495 N.3     1  UNL1       -0.2924
     36 H          61.3482   84.8571   16.0526 H       1  UNL1        0.1236
     37 C          63.1339   90.1121   13.1593 C.3     1  UNL1        0.1391
     38 C          64.4244   90.8767   13.1693 C.ar    1  UNL1        0.0319
     39 C          65.3158   90.8277   14.3747 C.ar    1  UNL1        0.1379
     40 F          65.1390   90.2758   15.3020 F       1  UNL1       -0.2044
     41 C          66.6063   91.5923   14.3848 C.ar    1  UNL1        0.0294
     42 C          67.0054   92.4058   13.1894 C.ar    1  UNL1        0.0022
     43 C          66.1140   92.4548   11.9840 C.ar    1  UNL1        0.0037
     44 C          64.8235   91.6902   11.9739 C.ar    1  UNL1        0.0714
     45 C          63.9321   91.7392   10.7685 C.3     1  UNL1        0.4184
     46 F          63.0408   91.7881    9.5631 F       1  UNL1       -0.1659
     47 F          65.1382   91.7399    9.8767 F       1  UNL1       -0.1659
     48 F          62.7261   91.7385   11.6603 F       1  UNL1       -0.1659
@<TRIPOS>UNITY_ATOM_ATTR
24 1
charge -1
@<TRIPOS>BOND
     1    34    35    1
     2    35    27    1
     3    27    26    1
     4    26     1    1
     5     1     2   ar
     6     2     3    2
     7     2     4   ar
     8     4    10    1
     9    10    11   ar
    10    11    12   ar
    11    12    13   ar
    12    13    14   ar
    13    14    17    1
    14    17    18    1
    15    18    19    1
    16    19    20    1
    17    20    21    1
    18    21    22    1
    19    22    23    1
    20    23    24   ar
    21    23    25   ar
    22    14    15   ar
    23    15    16    1
    24     4     5   ar
    25     5     6    1
    26     5     7   ar
    27     7    37    1
    28    37    38    1
    29    38    39   ar
    30    39    40    1
    31    39    41   ar
    32    41    42   ar
    33    42    43   ar
    34    43    44   ar
    35    44    45    1
    36    45    46    1
    37    45    47    1
    38    45    48    1
    39     7     8   ar
    40     8     9    2
    41    27    28    1
    42    28    29   ar
    43    29    30   ar
    44    30    31   ar
    45    31    32   ar
    46    32    33   ar
    47     8     1   ar
    48    33    28   ar
    49    15    10   ar
    50    44    38   ar
    51    35    36    1
@<TRIPOS>MOLECULE
*****
 48 51 0 0 0
SMALL
GASTEIGER

@<TRIPOS>ATOM
      1 N          63.7482   86.5275   13.2485 N.ar    1  UNL1       -0.2470
      2 C          64.0650   87.6269   14.2185 C.ar    1  UNL1        0.2654
      3 O          64.5686   87.2936   15.5916 O.2     1  UNL1       -0.2668
      4 C          63.8783   89.0595   13.8155 C.ar    1  UNL1        0.0703
      5 C          63.3747   89.3928   12.4424 C.ar    1  UNL1        0.0465
      6 C          63.2816   90.4688   12.2710 C.3     1  UNL1        0.0503
      7 N          63.0579   88.2934   11.4724 N.ar    1  UNL1       -0.2806
      8 C          63.2446   86.8608   11.8755 C.ar    1  UNL1        0.3338
      9 O          62.9278   85.7613   10.9055 O.2     1  UNL1       -0.2462
     10 C          64.1951   90.1590   14.7855 C.ar    1  UNL1        0.0362
     11 C          63.3336   90.3620   15.9965 C.ar    1  UNL1        0.0026
     12 C          63.6503   91.4614   16.9665 C.ar    1  UNL1        0.0033
     13 C          64.8286   92.3579   16.7255 C.ar    1  UNL1        0.0392
     14 C          65.6901   92.1549   15.5145 C.ar    1  UNL1        0.1658
     15 C          65.3733   91.0554   14.5444 C.ar    1  UNL1        0.1739
     16 F          66.2348   90.8524   13.3334 F       1  UNL1       -0.2010
     17 O          66.8684   93.0512   15.2734 O.3     1  UNL1       -0.4731
     18 C          66.8281   94.0612   14.1652 C.3     1  UNL1        0.2081
     19 C          66.2014   93.7062   12.8494 C.3     1  UNL1        0.0794
     20 C          66.1316   94.7267   11.7523 C.3     1  UNL1        0.1465
     21 O          67.2430   94.8277   10.7501 O.3     1  UNL1       -0.3476
     22 C          67.2621   93.9183    9.5572 C.3     1  UNL1        0.1835
     23 C          68.1790   92.7315    9.5335 C.2     1  UNL1        0.0801
     24 O          68.7097   92.2196    8.2272 O.co2   1  UNL1       -0.5466
     25 O          68.5653   92.0564   10.8162 O.co2   1  UNL1       -0.5466
     26 C          63.9350   85.0947   13.6516 C.3     1  UNL1        0.1337
     27 C          62.7511   84.2711   14.0638 C.3     1  UNL1        0.1000
     28 C          62.5837   82.8790   13.5307 C.ar    1  UNL1       -0.0061
     29 C          63.0529   82.5447   12.1458 C.ar    1  UNL1       -0.0029
     30 C          62.8855   81.1527   11.6127 C.ar    1  UNL1       -0.0003
     31 C          62.2488   80.0949   12.4647 C.ar    1  UNL1       -0.0000
     32 C          61.7796   80.4292   13.8496 C.ar    1  UNL1       -0.0003
     33 C          61.9470   81.8212   14.3826 C.ar    1  UNL1       -0.0029
     34 C          62.1369   85.2197   16.4032 C.3     1  UNL1        0.0861
     35 N          61.7346   84.8395   15.0090 N.3     1  UNL1       -0.2924
     36 H          61.3626   85.6817   14.5699 H       1  UNL1        0.1236
     37 C          62.5543   88.6267   10.0993 C.3     1  UNL1        0.1391
     38 C          61.4193   87.8454    9.5066 C.ar    1  UNL1        0.0319
     39 C          61.6998   86.7143    8.5622 C.ar    1  UNL1        0.1379
     40 F          62.6802   86.3631    8.2288 F       1  UNL1       -0.2044
     41 C          60.5648   85.9331    7.9695 C.ar    1  UNL1        0.0294
     42 C          59.1492   86.2828    8.3212 C.ar    1  UNL1        0.0022
     43 C          58.8686   87.4139    9.2656 C.ar    1  UNL1        0.0037
     44 C          60.0036   88.1952    9.8584 C.ar    1  UNL1        0.0714
     45 C          59.7230   89.3263   10.8028 C.3     1  UNL1        0.4184
     46 F          59.4424   90.4573   11.7472 F       1  UNL1       -0.1659
     47 F          59.5886   88.3492   11.9329 F       1  UNL1       -0.1659
     48 F          59.8575   90.3033    9.6726 F       1  UNL1       -0.1659
@<TRIPOS>UNITY_ATOM_ATTR
24 1
charge -1
@<TRIPOS>BOND
     1    34    35    1
     2    35    27    1
     3    27    26    1
     4    26     1    1
     5     1     2   ar
     6     2     3    2
     7     2     4   ar
     8     4    10    1
     9    10    11   ar
    10    11    12   ar
    11    12    13   ar
    12    13    14   ar
    13    14    17    1
    14    17    18    1
    15    18    19    1
    16    19    20    1
    17    20    21    1
    18    21    22    1
    19    22    23    1
    20    23    24   ar
    21    23    25   ar
    22    14    15   ar
    23    15    16    1
    24     4     5   ar
    25     5     6    1
    26     5     7   ar
    27     7    37    1
    28    37    38    1
    29    38    39   ar
    30    39    40    1
    31    39    41   ar
    32    41    42   ar
    33    42    43   ar
    34    43    44   ar
    35    44    45    1
    36    45    46    1
    37    45    47    1
    38    45    48    1
    39     7     8   ar
    40     8     9    2
    41    27    28    1
    42    28    29   ar
    43    29    30   ar
    44    30    31   ar
    45    31    32   ar
    46    32    33   ar
    47     8     1   ar
    48    33    28   ar
    49    15    10   ar
    50    44    38   ar
    51    35    36    1
@<TRIPOS>MOLECULE
*****
 48 51 0 0 0
SMALL
GASTEIGER

@<TRIPOS>ATOM
      1 N          62.8411   87.1040   11.6762 N.ar    1  UNL1       -0.2470
      2 C          63.0425   88.3010   12.5575 C.ar    1  UNL1        0.2654
      3 O          62.5259   89.6427   12.1298 O.2     1  UNL1       -0.2668
      4 C          63.7606   88.1563   13.8664 C.ar    1  UNL1        0.0703
      5 C          64.2772   86.8146   14.2941 C.ar    1  UNL1        0.0465
      6 C          64.7806   86.8401   15.2645 C.3     1  UNL1        0.0503
      7 N          64.0758   85.6176   13.4129 N.ar    1  UNL1       -0.2806
      8 C          63.3577   85.7623   12.1039 C.ar    1  UNL1        0.3338
      9 O          63.1563   84.5653   11.2226 O.2     1  UNL1       -0.2462
     10 C          63.9620   89.3533   14.7478 C.ar    1  UNL1        0.0362
     11 C          63.3551   89.3855   16.1191 C.ar    1  UNL1        0.0026
     12 C          63.5566   90.5825   17.0004 C.ar    1  UNL1        0.0033
     13 C          64.3649   91.7472   16.5104 C.ar    1  UNL1        0.0392
     14 C          64.9718   91.7149   15.1391 C.ar    1  UNL1        0.1658
     15 C          64.7704   90.5179   14.2577 C.ar    1  UNL1        0.1739
     16 F          65.3773   90.4856   12.8864 F       1  UNL1       -0.2010
     17 O          65.7802   92.8795   14.6490 O.3     1  UNL1       -0.4731
     18 C          67.2350   92.9830   14.9991 C.3     1  UNL1        0.2081
     19 C          68.2376   92.1101   14.3040 C.3     1  UNL1        0.0794
     20 C          68.1408   91.8889   12.8236 C.3     1  UNL1        0.1465
     21 O          67.3317   92.8258   11.9767 O.3     1  UNL1       -0.3476
     22 C          67.1054   92.5196   10.5258 C.3     1  UNL1        0.1835
     23 C          68.0547   93.0468    9.4910 C.2     1  UNL1        0.0801
     24 O          68.6327   92.1208    8.4622 O.co2   1  UNL1       -0.5466
     25 O          68.4261   94.5002    9.4851 O.co2   1  UNL1       -0.5466
     26 C          62.1230   87.2487   10.3672 C.3     1  UNL1        0.1337
     27 C          60.7119   87.7564   10.3379 C.3     1  UNL1        0.1000
     28 C          60.0943   88.1810    9.0385 C.ar    1  UNL1       -0.0061
     29 C          59.2829   87.2048    8.2394 C.ar    1  UNL1       -0.0029
     30 C          58.6654   87.6294    6.9401 C.ar    1  UNL1       -0.0003
     31 C          58.8593   89.0302    6.4399 C.ar    1  UNL1       -0.0000
     32 C          59.6706   90.0064    7.2390 C.ar    1  UNL1       -0.0003
     33 C          60.2881   89.5818    8.5383 C.ar    1  UNL1       -0.0029
     34 C          59.2689   89.1327   12.0035 C.3     1  UNL1        0.0861
     35 N          59.9183   87.8395   11.6081 N.3     1  UNL1       -0.2924
     36 H          59.1737   87.1461   11.5360 H       1  UNL1        0.1236
     37 C          64.5924   84.2759   13.8406 C.3     1  UNL1        0.1391
     38 C          63.7067   83.0685   13.7532 C.ar    1  UNL1        0.0319
     39 C          64.0350   81.9656   12.7909 C.ar    1  UNL1        0.1379
     40 F          64.8847   81.9227   12.1041 F       1  UNL1       -0.2044
     41 C          63.1493   80.7582   12.7035 C.ar    1  UNL1        0.0294
     42 C          61.9352   80.6536   13.5783 C.ar    1  UNL1        0.0022
     43 C          61.6069   81.7565   14.5405 C.ar    1  UNL1        0.0037
     44 C          62.4927   82.9640   14.6279 C.ar    1  UNL1        0.0714
     45 C          62.1644   84.0668   15.5901 C.3     1  UNL1        0.4184
     46 F          61.8360   85.1696   16.5524 F       1  UNL1       -0.1659
     47 F          63.1739   83.5235   16.5573 F       1  UNL1       -0.1659
     48 F          61.1548   84.6101   14.6230 F       1  UNL1       -0.1659
@<TRIPOS>UNITY_ATOM_ATTR
24 1
charge -1
@<TRIPOS>BOND
     1    34    35    1
     2    35    27    1
     3    27    26    1
     4    26     1    1
     5     1     2   ar
     6     2     3    2
     7     2     4   ar
     8     4    10    1
     9    10    11   ar
    10    11    12   ar
    11    12    13   ar
    12    13    14   ar
    13    14    17    1
    14    17    18    1
    15    18    19    1
    16    19    20    1
    17    20    21    1
    18    21    22    1
    19    22    23    1
    20    23    24   ar
    21    23    25   ar
    22    14    15   ar
    23    15    16    1
    24     4     5   ar
    25     5     6    1
    26     5     7   ar
    27     7    37    1
    28    37    38    1
    29    38    39   ar
    30    39    40    1
    31    39    41   ar
    32    41    42   ar
    33    42    43   ar
    34    43    44   ar
    35    44    45    1
    36    45    46    1
    37    45    47    1
    38    45    48    1
    39     7     8   ar
    40     8     9    2
    41    27    28    1
    42    28    29   ar
    43    29    30   ar
    44    30    31   ar
    45    31    32   ar
    46    32    33   ar
    47     8     1   ar
    48    33    28   ar
    49    15    10   ar
    50    44    38   ar
    51    35    36    1
@<TRIPOS>MOLECULE
*****
 48 51 0 0 0
SMALL
GASTEIGER

@<TRIPOS>ATOM
      1 N          63.4276   89.5256   12.6699 N.ar    1  UNL1       -0.2470
      2 C          62.7642   89.0223   11.4223 C.ar    1  UNL1        0.2654
      3 O          62.2531   89.9941   10.4004 O.2     1  UNL1       -0.2668
      4 C          62.6119   87.5473   11.1967 C.ar    1  UNL1        0.0703
      5 C          63.1230   86.5755   12.2186 C.ar    1  UNL1        0.0465
      6 C          62.9526   85.5322   11.9388 C.3     1  UNL1        0.0503
      7 N          63.7865   87.0787   13.4662 N.ar    1  UNL1       -0.2806
      8 C          63.9388   88.5538   13.6919 C.ar    1  UNL1        0.3338
      9 O          64.6022   89.0571   14.9395 O.2     1  UNL1       -0.2462
     10 C          61.9484   87.0439    9.9490 C.ar    1  UNL1        0.0362
     11 C          62.6690   86.0810    9.0526 C.ar    1  UNL1        0.0026
     12 C          62.0056   85.5777    7.8050 C.ar    1  UNL1        0.0033
     13 C          60.6216   86.0373    7.4538 C.ar    1  UNL1        0.0392
     14 C          59.9010   87.0002    8.3502 C.ar    1  UNL1        0.1658
     15 C          60.5645   87.5035    9.5979 C.ar    1  UNL1        0.1739
     16 F          59.8439   88.4664   10.4943 F       1  UNL1       -0.2010
     17 O          58.5170   87.4598    7.9990 O.3     1  UNL1       -0.4731
     18 C          58.3255   88.6082    7.0533 C.3     1  UNL1        0.2081
     19 C          59.4099   89.6312    6.8864 C.3     1  UNL1        0.0794
     20 C          59.7432   90.1548    5.5209 C.3     1  UNL1        0.1465
     21 O          58.8593   91.1798    4.8744 O.3     1  UNL1       -0.3476
     22 C          59.4096   92.5302    4.5228 C.3     1  UNL1        0.1835
     23 C          60.1023   92.7390    3.2088 C.2     1  UNL1        0.0801
     24 O          59.3484   93.3144    2.0467 O.co2   1  UNL1       -0.5466
     25 O          61.5489   92.3724    3.0569 O.co2   1  UNL1       -0.5466
     26 C          63.5800   91.0007   12.8956 C.3     1  UNL1        0.1337
     27 C          64.8722   91.6820   12.5552 C.3     1  UNL1        0.1000
     28 C          65.8778   91.9640   13.6319 C.ar    1  UNL1       -0.0061
     29 C          65.4171   92.2914   15.0213 C.ar    1  UNL1       -0.0029
     30 C          66.4227   92.5734   16.0980 C.ar    1  UNL1       -0.0003
     31 C          67.8890   92.5280   15.7852 C.ar    1  UNL1       -0.0000
     32 C          68.3497   92.2006   14.3958 C.ar    1  UNL1       -0.0003
     33 C          67.3441   91.9186   13.3192 C.ar    1  UNL1       -0.0029
     34 C          65.5329   93.4987   10.8193 C.3     1  UNL1        0.0861
     35 N          65.1588   92.0814   11.1381 N.3     1  UNL1       -0.2924
     36 H          65.9285   91.4943   10.8166 H       1  UNL1        0.1236
     37 C          64.2976   86.1069   14.4881 C.3     1  UNL1        0.1391
     38 C          63.8234   84.6840   14.4730 C.ar    1  UNL1        0.0319
     39 C          64.4661   83.6889   13.5528 C.ar    1  UNL1        0.1379
     40 F          65.2830   83.8745   12.8499 F       1  UNL1       -0.2044
     41 C          63.9919   82.2660   13.5377 C.ar    1  UNL1        0.0294
     42 C          62.8750   81.8380   14.4428 C.ar    1  UNL1        0.0022
     43 C          62.2322   82.8330   15.3630 C.ar    1  UNL1        0.0037
     44 C          62.7064   84.2560   15.3781 C.ar    1  UNL1        0.0714
     45 C          62.0637   85.2510   16.2984 C.3     1  UNL1        0.4184
     46 F          61.4210   86.2460   17.2186 F       1  UNL1       -0.1659
     47 F          60.7849   85.1429   15.5220 F       1  UNL1       -0.1659
     48 F          63.3426   85.3591   17.0747 F       1  UNL1       -0.1659
@<TRIPOS>UNITY_ATOM_ATTR
24 1
charge -1
@<TRIPOS>BOND
     1    34    35    1
     2    35    27    1
     3    27    26    1
     4    26     1    1
     5     1     2   ar
     6     2     3    2
     7     2     4   ar
     8     4    10    1
     9    10    11   ar
    10    11    12   ar
    11    12    13   ar
    12    13    14   ar
    13    14    17    1
    14    17    18    1
    15    18    19    1
    16    19    20    1
    17    20    21    1
    18    21    22    1
    19    22    23    1
    20    23    24   ar
    21    23    25   ar
    22    14    15   ar
    23    15    16    1
    24     4     5   ar
    25     5     6    1
    26     5     7   ar
    27     7    37    1
    28    37    38    1
    29    38    39   ar
    30    39    40    1
    31    39    41   ar
    32    41    42   ar
    33    42    43   ar
    34    43    44   ar
    35    44    45    1
    36    45    46    1
    37    45    47    1
    38    45    48    1
    39     7     8   ar
    40     8     9    2
    41    27    28    1
    42    28    29   ar
    43    29    30   ar
    44    30    31   ar
    45    31    32   ar
    46    32    33   ar
    47     8     1   ar
    48    33    28   ar
    49    15    10   ar
    50    44    38   ar
    51    35    36    1
@<TRIPOS>MOLECULE
*****
 48 51 0 0 0
SMALL
GASTEIGER

@<TRIPOS>ATOM
      1 N          62.9680   88.9031   13.1307 N.ar    1  UNL1       -0.2470
      2 C          62.0314   88.9643   11.9607 C.ar    1  UNL1        0.2654
      3 O          61.3081   90.2399   11.6448 O.2     1  UNL1       -0.2668
      4 C          61.8180   87.7499   11.1065 C.ar    1  UNL1        0.0703
      5 C          62.5413   86.4743   11.4224 C.ar    1  UNL1        0.0465
      6 C          62.3017   85.6642   10.7281 C.3     1  UNL1        0.0503
      7 N          63.4779   86.4131   12.5924 N.ar    1  UNL1       -0.2806
      8 C          63.6912   87.6275   13.4465 C.ar    1  UNL1        0.3338
      9 O          64.6279   87.5664   14.6166 O.2     1  UNL1       -0.2462
     10 C          60.8814   87.8110    9.9364 C.ar    1  UNL1        0.0362
     11 C          59.9146   86.6909    9.6903 C.ar    1  UNL1        0.0026
     12 C          58.9780   86.7519    8.5203 C.ar    1  UNL1        0.0033
     13 C          59.0081   87.9333    7.5963 C.ar    1  UNL1        0.0392
     14 C          59.9749   89.0535    7.8425 C.ar    1  UNL1        0.1658
     15 C          60.9115   88.9923    9.0125 C.ar    1  UNL1        0.1739
     16 F          61.8782   90.1125    9.2587 F       1  UNL1       -0.2010
     17 O          60.0050   90.2348    6.9186 O.3     1  UNL1       -0.4731
     18 C          59.1089   90.2695    5.7162 C.3     1  UNL1        0.2081
     19 C          58.6526   91.5852    5.1586 C.3     1  UNL1        0.0794
     20 C          59.4833   92.2921    4.1290 C.3     1  UNL1        0.1465
     21 O          60.9616   92.0471    4.0609 O.3     1  UNL1       -0.3476
     22 C          61.7114   92.3315    2.7932 C.3     1  UNL1        0.1835
     23 C          63.1645   91.9754    2.6854 C.2     1  UNL1        0.0801
     24 O          63.7117   90.8142    3.4613 O.co2   1  UNL1       -0.5466
     25 O          64.0704   92.7806    1.8016 O.co2   1  UNL1       -0.5466
     26 C          63.1814   90.1176   13.9849 C.3     1  UNL1        0.1337
     27 C          64.0158   91.2554   13.4759 C.3     1  UNL1        0.1000
     28 C          65.2696   91.6484   14.1995 C.ar    1  UNL1       -0.0061
     29 C          66.5855   91.6383   13.4797 C.ar    1  UNL1       -0.0029
     30 C          67.8392   92.0314   14.2033 C.ar    1  UNL1       -0.0003
     31 C          67.7770   92.4345   15.6468 C.ar    1  UNL1       -0.0000
     32 C          66.4611   92.4446   16.3666 C.ar    1  UNL1       -0.0003
     33 C          65.2074   92.0516   15.6430 C.ar    1  UNL1       -0.0029
     34 C          64.2527   91.7027   10.9276 C.3     1  UNL1        0.0861
     35 N          63.5965   92.0002   12.2432 N.3     1  UNL1       -0.2924
     36 H          62.5987   91.8278   12.1202 H       1  UNL1        0.1236
     37 C          64.2011   85.1375   12.9083 C.3     1  UNL1        0.1391
     38 C          63.4341   83.8567   13.0535 C.ar    1  UNL1        0.0319
     39 C          63.3865   82.8781   11.9176 C.ar    1  UNL1        0.1379
     40 F          63.8651   82.9809   10.9399 F       1  UNL1       -0.2044
     41 C          62.6195   81.5972   12.0629 C.ar    1  UNL1        0.0294
     42 C          61.9001   81.2949   13.3440 C.ar    1  UNL1        0.0022
     43 C          61.9477   82.2735   14.4798 C.ar    1  UNL1        0.0037
     44 C          62.7148   83.5544   14.3346 C.ar    1  UNL1        0.0714
     45 C          62.7624   84.5329   15.4704 C.3     1  UNL1        0.4184
     46 F          62.8100   85.5115   16.6062 F       1  UNL1       -0.1659
     47 F          61.3042   84.8272   15.2780 F       1  UNL1       -0.1659
     48 F          64.2205   84.2386   15.6628 F       1  UNL1       -0.1659
@<TRIPOS>UNITY_ATOM_ATTR
24 1
charge -1
@<TRIPOS>BOND
     1    34    35    1
     2    35    27    1
     3    27    26    1
     4    26     1    1
     5     1     2   ar
     6     2     3    2
     7     2     4   ar
     8     4    10    1
     9    10    11   ar
    10    11    12   ar
    11    12    13   ar
    12    13    14   ar
    13    14    17    1
    14    17    18    1
    15    18    19    1
    16    19    20    1
    17    20    21    1
    18    21    22    1
    19    22    23    1
    20    23    24   ar
    21    23    25   ar
    22    14    15   ar
    23    15    16    1
    24     4     5   ar
    25     5     6    1
    26     5     7   ar
    27     7    37    1
    28    37    38    1
    29    38    39   ar
    30    39    40    1
    31    39    41   ar
    32    41    42   ar
    33    42    43   ar
    34    43    44   ar
    35    44    45    1
    36    45    46    1
    37    45    47    1
    38    45    48    1
    39     7     8   ar
    40     8     9    2
    41    27    28    1
    42    28    29   ar
    43    29    30   ar
    44    30    31   ar
    45    31    32   ar
    46    32    33   ar
    47     8     1   ar
    48    33    28   ar
    49    15    10   ar
    50    44    38   ar
    51    35    36    1
@<TRIPOS>MOLECULE
*****
 48 51 0 0 0
SMALL
GASTEIGER

@<TRIPOS>ATOM
      1 N          62.4469   88.9330   12.7973 N.ar    1  UNL1       -0.2470
      2 C          61.5629   88.9762   11.5863 C.ar    1  UNL1        0.2654
      3 O          60.7656   90.2101   11.2833 O.2     1  UNL1       -0.2668
      4 C          61.4762   87.7855   10.6782 C.ar    1  UNL1        0.0703
      5 C          62.2735   86.5516   10.9811 C.ar    1  UNL1        0.0465
      6 C          62.1244   85.7556   10.2464 C.3     1  UNL1        0.0503
      7 N          63.1574   86.5083   12.1922 N.ar    1  UNL1       -0.2806
      8 C          63.2441   87.6990   13.1003 C.ar    1  UNL1        0.3338
      9 O          64.1281   87.6558   14.3114 O.2     1  UNL1       -0.2462
     10 C          60.5922   87.8287    9.4670 C.ar    1  UNL1        0.0362
     11 C          59.6669   86.6853    9.1727 C.ar    1  UNL1        0.0026
     12 C          58.7830   86.7285    7.9617 C.ar    1  UNL1        0.0033
     13 C          58.8242   87.9150    7.0449 C.ar    1  UNL1        0.0392
     14 C          59.7495   89.0584    7.3392 C.ar    1  UNL1        0.1658
     15 C          60.6335   89.0152    8.5503 C.ar    1  UNL1        0.1739
     16 F          61.5588   90.1586    8.8446 F       1  UNL1       -0.2010
     17 O          59.7908   90.2449    6.4224 O.3     1  UNL1       -0.4731
     18 C          58.6182   90.5508    5.5385 C.3     1  UNL1        0.2081
     19 C          58.5288   91.8771    4.8434 C.3     1  UNL1        0.0794
     20 C          59.6645   92.3531    3.9871 C.3     1  UNL1        0.1465
     21 O          59.3839   93.0630    2.6958 O.3     1  UNL1       -0.3476
     22 C          60.5164   93.6167    1.8828 C.3     1  UNL1        0.1835
     23 C          61.3982   92.6918    1.0975 C.2     1  UNL1        0.0801
     24 O          62.8688   92.6318    1.3869 O.co2   1  UNL1       -0.5466
     25 O          60.8095   91.8267    0.0226 O.co2   1  UNL1       -0.5466
     26 C          62.5336   90.1237   13.7055 C.3     1  UNL1        0.1337
     27 C          63.8736   90.6455   14.1321 C.3     1  UNL1        0.1000
     28 C          64.7561   91.3454   13.1414 C.ar    1  UNL1       -0.0061
     29 C          66.1416   91.7637   13.5355 C.ar    1  UNL1       -0.0029
     30 C          67.0240   92.4636   12.5448 C.ar    1  UNL1       -0.0003
     31 C          66.5209   92.7451   11.1600 C.ar    1  UNL1       -0.0000
     32 C          65.1354   92.3267   10.7659 C.ar    1  UNL1       -0.0003
     33 C          64.2530   91.6269   11.7566 C.ar    1  UNL1       -0.0029
     34 C          63.3654   89.9956   16.5958 C.3     1  UNL1        0.0861
     35 N          64.3312   90.4675   15.5495 N.3     1  UNL1       -0.2924
     36 H          65.0962   89.7931   15.5294 H       1  UNL1        0.1236
     37 C          63.9547   85.2744   12.4951 C.3     1  UNL1        0.1391
     38 C          63.2780   84.0678   13.0748 C.ar    1  UNL1        0.0319
     39 C          62.6194   84.1510   14.4200 C.ar    1  UNL1        0.1379
     40 F          62.5640   85.0267   15.0725 F       1  UNL1       -0.2044
     41 C          61.9427   82.9444   14.9997 C.ar    1  UNL1        0.0294
     42 C          61.9245   81.6545   14.2343 C.ar    1  UNL1        0.0022
     43 C          62.5831   81.5712   12.8892 C.ar    1  UNL1        0.0037
     44 C          63.2599   82.7779   12.3094 C.ar    1  UNL1        0.0714
     45 C          63.9184   82.6946   10.9643 C.3     1  UNL1        0.4184
     46 F          64.5770   82.6113    9.6193 F       1  UNL1       -0.1659
     47 F          65.2380   83.0388   11.5891 F       1  UNL1       -0.1659
     48 F          62.5989   82.3504   10.3396 F       1  UNL1       -0.1659
@<TRIPOS>UNITY_ATOM_ATTR
24 1
charge -1
@<TRIPOS>BOND
     1    34    35    1
     2    35    27    1
     3    27    26    1
     4    26     1    1
     5     1     2   ar
     6     2     3    2
     7     2     4   ar
     8     4    10    1
     9    10    11   ar
    10    11    12   ar
    11    12    13   ar
    12    13    14   ar
    13    14    17    1
    14    17    18    1
    15    18    19    1
    16    19    20    1
    17    20    21    1
    18    21    22    1
    19    22    23    1
    20    23    24   ar
    21    23    25   ar
    22    14    15   ar
    23    15    16    1
    24     4     5   ar
    25     5     6    1
    26     5     7   ar
    27     7    37    1
    28    37    38    1
    29    38    39   ar
    30    39    40    1
    31    39    41   ar
    32    41    42   ar
    33    42    43   ar
    34    43    44   ar
    35    44    45    1
    36    45    46    1
    37    45    47    1
    38    45    48    1
    39     7     8   ar
    40     8     9    2
    41    27    28    1
    42    28    29   ar
    43    29    30   ar
    44    30    31   ar
    45    31    32   ar
    46    32    33   ar
    47     8     1   ar
    48    33    28   ar
    49    15    10   ar
    50    44    38   ar
    51    35    36    1
@<TRIPOS>MOLECULE
*****
 48 51 0 0 0
SMALL
GASTEIGER

@<TRIPOS>ATOM
      1 N          62.8484   87.9895   11.6228 N.ar    1  UNL1       -0.2470
      2 C          63.1565   89.1049   12.5772 C.ar    1  UNL1        0.2654
      3 O          62.7334   90.5071   12.2537 O.2     1  UNL1       -0.2668
      4 C          63.8876   88.8180   13.8552 C.ar    1  UNL1        0.0703
      5 C          64.3106   87.4157   14.1787 C.ar    1  UNL1        0.0465
      6 C          64.8337   87.3373   15.1357 C.3     1  UNL1        0.0503
      7 N          64.0026   86.3003   13.2243 N.ar    1  UNL1       -0.2806
      8 C          63.2715   86.5872   11.9463 C.ar    1  UNL1        0.3338
      9 O          62.9634   85.4718   10.9918 O.2     1  UNL1       -0.2462
     10 C          64.1957   89.9334   14.8097 C.ar    1  UNL1        0.0362
     11 C          63.3941   90.0864   16.0683 C.ar    1  UNL1        0.0026
     12 C          63.7021   91.2017   17.0227 C.ar    1  UNL1        0.0033
     13 C          64.8118   92.1642   16.7186 C.ar    1  UNL1        0.0392
     14 C          65.6134   92.0112   15.4600 C.ar    1  UNL1        0.1658
     15 C          65.3053   90.8958   14.5055 C.ar    1  UNL1        0.1739
     16 F          66.1069   90.7428   13.2469 F       1  UNL1       -0.2010
     17 O          66.7230   92.9736   15.1559 O.3     1  UNL1       -0.4731
     18 C          66.5504   94.0003   14.0762 C.3     1  UNL1        0.2081
     19 C          66.3928   93.5681   12.6484 C.3     1  UNL1        0.0794
     20 C          66.1620   94.5912   11.5761 C.3     1  UNL1        0.1465
     21 O          66.2250   94.1913   10.1319 O.3     1  UNL1       -0.3476
     22 C          67.5520   94.0819    9.4410 C.3     1  UNL1        0.1835
     23 C          68.2990   92.7812    9.4534 C.2     1  UNL1        0.0801
     24 O          68.6139   92.1096   10.7571 O.co2   1  UNL1       -0.5466
     25 O          68.7312   92.1522    8.1620 O.co2   1  UNL1       -0.5466
     26 C          62.1173   88.2763   10.3448 C.3     1  UNL1        0.1337
     27 C          60.9927   87.3851    9.9078 C.3     1  UNL1        0.1000
     28 C          61.1815   86.4534    8.7475 C.ar    1  UNL1       -0.0061
     29 C          62.5326   85.8629    8.4719 C.ar    1  UNL1       -0.0029
     30 C          62.7213   84.9313    7.3116 C.ar    1  UNL1       -0.0003
     31 C          61.5591   84.5901    6.4268 C.ar    1  UNL1       -0.0000
     32 C          60.2080   85.1806    6.7024 C.ar    1  UNL1       -0.0003
     33 C          60.0193   86.1123    7.8627 C.ar    1  UNL1       -0.0029
     34 C          59.3709   88.5598   11.5632 C.3     1  UNL1        0.0861
     35 N          59.6793   87.4255   10.6312 N.3     1  UNL1       -0.2924
     36 H          58.9501   87.4239    9.9179 H       1  UNL1        0.1236
     37 C          64.4256   84.8980   13.5478 C.3     1  UNL1        0.1391
     38 C          63.3917   83.8296   13.7460 C.ar    1  UNL1        0.0319
     39 C          62.4937   83.8685   14.9470 C.ar    1  UNL1        0.1379
     40 F          62.4930   84.6168   15.7442 F       1  UNL1       -0.2044
     41 C          61.4598   82.8000   15.1453 C.ar    1  UNL1        0.0294
     42 C          61.3238   81.6927   14.1426 C.ar    1  UNL1        0.0022
     43 C          62.2216   81.6538   12.9417 C.ar    1  UNL1        0.0037
     44 C          63.2557   82.7222   12.7434 C.ar    1  UNL1        0.0714
     45 C          64.1535   82.6833   11.5425 C.3     1  UNL1        0.4184
     46 F          65.0514   82.6444   10.3416 F       1  UNL1       -0.1659
     47 F          63.0132   83.1280   10.6755 F       1  UNL1       -0.1659
     48 F          65.2939   82.2387   12.4095 F       1  UNL1       -0.1659
@<TRIPOS>UNITY_ATOM_ATTR
24 1
charge -1
@<TRIPOS>BOND
     1    34    35    1
     2    35    27    1
     3    27    26    1
     4    26     1    1
     5     1     2   ar
     6     2     3    2
     7     2     4   ar
     8     4    10    1
     9    10    11   ar
    10    11    12   ar
    11    12    13   ar
    12    13    14   ar
    13    14    17    1
    14    17    18    1
    15    18    19    1
    16    19    20    1
    17    20    21    1
    18    21    22    1
    19    22    23    1
    20    23    24   ar
    21    23    25   ar
    22    14    15   ar
    23    15    16    1
    24     4     5   ar
    25     5     6    1
    26     5     7   ar
    27     7    37    1
    28    37    38    1
    29    38    39   ar
    30    39    40    1
    31    39    41   ar
    32    41    42   ar
    33    42    43   ar
    34    43    44   ar
    35    44    45    1
    36    45    46    1
    37    45    47    1
    38    45    48    1
    39     7     8   ar
    40     8     9    2
    41    27    28    1
    42    28    29   ar
    43    29    30   ar
    44    30    31   ar
    45    31    32   ar
    46    32    33   ar
    47     8     1   ar
    48    33    28   ar
    49    15    10   ar
    50    44    38   ar
    51    35    36    1
