@<TRIPOS>MOLECULE
*****
 22 24 0 0 0
SMALL
GASTEIGER

@<TRIPOS>ATOM
      1 C          65.4616   92.3747   12.6987 C.ar    1  UNL1       -0.0000
      2 C          64.2057   91.6120   12.3973 C.ar    1  UNL1       -0.0003
      3 C          63.5440   90.8018   13.4723 C.ar    1  UNL1       -0.0039
      4 C          64.1382   90.7542   14.8488 C.ar    1  UNL1       -0.0178
      5 C          65.3942   91.5169   15.1502 C.ar    1  UNL1       -0.0039
      6 C          66.0559   92.3271   14.0752 C.ar    1  UNL1       -0.0003
      7 N          68.1085   95.6157    8.3987 N.pl3   1  UNL1       -0.3570
      8 C          67.4468   94.8054    9.4737 C.ar    1  UNL1        0.0415
      9 C          67.5536   93.3094    9.4583 C.ar    1  UNL1        0.0141
     10 C          66.8918   92.4991   10.5333 C.ar    1  UNL1        0.0013
     11 C          66.1234   93.1850   11.6237 C.ar    1  UNL1        0.0001
     12 C          66.0166   94.6810   11.6391 C.ar    1  UNL1        0.0013
     13 C          66.6783   95.4913   10.5641 C.ar    1  UNL1        0.0141
     14 H          68.6129   95.1655    7.6830 H       1  UNL1        0.1424
     15 H          68.0384   96.5976    8.4088 H       1  UNL1        0.1424
     16 C          63.4765   89.9440   15.9238 C.3     1  UNL1        0.0527
     17 C          63.6132   88.4503   15.9286 C.ar    1  UNL1       -0.0147
     18 C          62.9860   87.6432   17.0265 C.ar    1  UNL1        0.0167
     19 C          63.1227   86.1495   17.0314 C.ar    1  UNL1        0.0986
     20 N          63.8866   85.4628   15.9383 N.ar    1  UNL1       -0.2423
     21 C          64.5138   86.2697   14.8404 C.ar    1  UNL1        0.0986
     22 C          64.3771   87.7635   14.8356 C.ar    1  UNL1        0.0167
@<TRIPOS>BOND
     1     7     8    1
     2     8     9   ar
     3     9    10   ar
     4    10    11   ar
     5    11     1    1
     6     1     2   ar
     7     2     3   ar
     8     3     4   ar
     9     4    16    1
    10    16    17    1
    11    17    18   ar
    12    18    19   ar
    13    19    20   ar
    14    20    21   ar
    15    21    22   ar
    16     4     5   ar
    17     5     6   ar
    18    11    12   ar
    19    12    13   ar
    20    13     8   ar
    21     6     1   ar
    22    22    17   ar
    23     7    14    1
    24     7    15    1
@<TRIPOS>MOLECULE
*****
 22 24 0 0 0
SMALL
GASTEIGER

@<TRIPOS>ATOM
      1 C          62.3956   87.8526   10.2626 C.ar    1  UNL1       -0.0000
      2 C          62.8556   87.3313   11.5917 C.ar    1  UNL1       -0.0003
      3 C          63.2384   88.2888   12.6811 C.ar    1  UNL1       -0.0039
      4 C          63.1612   89.7675   12.4413 C.ar    1  UNL1       -0.0178
      5 C          62.7012   90.2887   11.1122 C.ar    1  UNL1       -0.0039
      6 C          62.3184   89.3312   10.0228 C.ar    1  UNL1       -0.0003
      7 N          60.8642   84.0228    5.9051 N.pl3   1  UNL1       -0.3570
      8 C          61.2471   84.9802    6.9944 C.ar    1  UNL1        0.0415
      9 C          62.6452   84.9782    7.5376 C.ar    1  UNL1        0.0141
     10 C          63.0281   85.9356    8.6270 C.ar    1  UNL1        0.0013
     11 C          62.0127   86.8951    9.1732 C.ar    1  UNL1        0.0001
     12 C          60.6146   86.8972    8.6300 C.ar    1  UNL1        0.0013
     13 C          60.2317   85.9397    7.5406 C.ar    1  UNL1        0.0141
     14 H          61.5307   83.3930    5.5466 H       1  UNL1        0.1424
     15 H          59.9466   84.0241    5.5486 H       1  UNL1        0.1424
     16 C          63.5440   90.7249   13.5307 C.3     1  UNL1        0.0527
     17 C          64.8971   91.3722   13.5190 C.ar    1  UNL1       -0.0147
     18 C          65.2488   92.3556   12.4422 C.ar    1  UNL1        0.0167
     19 C          66.6018   93.0029   12.4304 C.ar    1  UNL1        0.0986
     20 N          67.6032   92.6670   13.4955 N.ar    1  UNL1       -0.2423
     21 C          67.2516   91.6837   14.5722 C.ar    1  UNL1        0.0986
     22 C          65.8985   91.0363   14.5840 C.ar    1  UNL1        0.0167
@<TRIPOS>BOND
     1     7     8    1
     2     8     9   ar
     3     9    10   ar
     4    10    11   ar
     5    11     1    1
     6     1     2   ar
     7     2     3   ar
     8     3     4   ar
     9     4    16    1
    10    16    17    1
    11    17    18   ar
    12    18    19   ar
    13    19    20   ar
    14    20    21   ar
    15    21    22   ar
    16     4     5   ar
    17     5     6   ar
    18    11    12   ar
    19    12    13   ar
    20    13     8   ar
    21     6     1   ar
    22    22    17   ar
    23     7    14    1
    24     7    15    1
@<TRIPOS>MOLECULE
*****
 22 24 0 0 0
SMALL
GASTEIGER

@<TRIPOS>ATOM
      1 C          62.3978   87.8525   10.2627 C.ar    1  UNL1       -0.0000
      2 C          62.3260   89.3314   10.0225 C.ar    1  UNL1       -0.0003
      3 C          62.7099   90.2878   11.1124 C.ar    1  UNL1       -0.0039
      4 C          63.1655   89.7653   12.4426 C.ar    1  UNL1       -0.0178
      5 C          63.2372   88.2865   12.6828 C.ar    1  UNL1       -0.0039
      6 C          62.8534   87.3301   11.5929 C.ar    1  UNL1       -0.0003
      7 N          60.8624   84.0270    5.9029 N.pl3   1  UNL1       -0.3570
      8 C          61.2463   84.9834    6.9928 C.ar    1  UNL1        0.0415
      9 C          60.2323   85.9446    7.5386 C.ar    1  UNL1        0.0141
     10 C          60.6162   86.9010    8.6286 C.ar    1  UNL1        0.0013
     11 C          62.0139   86.8962    9.1727 C.ar    1  UNL1        0.0001
     12 C          63.0279   85.9349    8.6270 C.ar    1  UNL1        0.0013
     13 C          62.6440   84.9785    7.5370 C.ar    1  UNL1        0.0141
     14 H          59.9450   84.0302    5.5457 H       1  UNL1        0.1424
     15 H          61.5279   83.3961    5.5447 H       1  UNL1        0.1424
     16 C          63.5493   90.7217   13.5325 C.3     1  UNL1        0.0527
     17 C          64.9032   91.3673   13.5214 C.ar    1  UNL1       -0.0147
     18 C          65.2553   92.3531   12.4470 C.ar    1  UNL1        0.0167
     19 C          66.6092   92.9986   12.4359 C.ar    1  UNL1        0.0986
     20 N          67.6110   92.6585   13.4992 N.ar    1  UNL1       -0.2423
     21 C          67.2590   91.6727   14.5736 C.ar    1  UNL1        0.0986
     22 C          65.9050   91.0271   14.5847 C.ar    1  UNL1        0.0167
@<TRIPOS>BOND
     1     7     8    1
     2     8     9   ar
     3     9    10   ar
     4    10    11   ar
     5    11     1    1
     6     1     2   ar
     7     2     3   ar
     8     3     4   ar
     9     4    16    1
    10    16    17    1
    11    17    18   ar
    12    18    19   ar
    13    19    20   ar
    14    20    21   ar
    15    21    22   ar
    16     4     5   ar
    17     5     6   ar
    18    11    12   ar
    19    12    13   ar
    20    13     8   ar
    21     6     1   ar
    22    22    17   ar
    23     7    14    1
    24     7    15    1
@<TRIPOS>MOLECULE
*****
 22 24 0 0 0
SMALL
GASTEIGER

@<TRIPOS>ATOM
      1 C          65.4934   92.2770   12.6562 C.ar    1  UNL1       -0.0000
      2 C          66.1290   92.1749   14.0110 C.ar    1  UNL1       -0.0003
      3 C          65.4636   91.3776   15.0934 C.ar    1  UNL1       -0.0039
      4 C          64.1627   90.6824   14.8210 C.ar    1  UNL1       -0.0178
      5 C          63.5271   90.7845   13.4662 C.ar    1  UNL1       -0.0039
      6 C          64.1925   91.5818   12.3838 C.ar    1  UNL1       -0.0003
      7 N          68.1550   95.4662    8.3266 N.pl3   1  UNL1       -0.3570
      8 C          67.4896   94.6689    9.4090 C.ar    1  UNL1        0.0415
      9 C          67.6869   93.1834    9.4755 C.ar    1  UNL1        0.0141
     10 C          67.0215   92.3862   10.5579 C.ar    1  UNL1        0.0013
     11 C          66.1588   93.0743   11.5738 C.ar    1  UNL1        0.0001
     12 C          65.9615   94.5597   11.5073 C.ar    1  UNL1        0.0013
     13 C          66.6269   95.3570   10.4249 C.ar    1  UNL1        0.0141
     14 H          68.7212   95.0145    7.6598 H       1  UNL1        0.1424
     15 H          68.0254   96.4411    8.2830 H       1  UNL1        0.1424
     16 C          63.4973   89.8851   15.9034 C.3     1  UNL1        0.0527
     17 C          63.6241   88.3906   15.9198 C.ar    1  UNL1       -0.0147
     18 C          64.3947   87.6913   14.8395 C.ar    1  UNL1        0.0167
     19 C          64.5215   86.1968   14.8559 C.ar    1  UNL1        0.0986
     20 N          63.8777   85.4015   15.9527 N.ar    1  UNL1       -0.2423
     21 C          63.1070   86.1007   17.0330 C.ar    1  UNL1        0.0986
     22 C          62.9802   87.5953   17.0166 C.ar    1  UNL1        0.0167
@<TRIPOS>BOND
     1     7     8    1
     2     8     9   ar
     3     9    10   ar
     4    10    11   ar
     5    11     1    1
     6     1     2   ar
     7     2     3   ar
     8     3     4   ar
     9     4    16    1
    10    16    17    1
    11    17    18   ar
    12    18    19   ar
    13    19    20   ar
    14    20    21   ar
    15    21    22   ar
    16     4     5   ar
    17     5     6   ar
    18    11    12   ar
    19    12    13   ar
    20    13     8   ar
    21     6     1   ar
    22    22    17   ar
    23     7    14    1
    24     7    15    1
@<TRIPOS>MOLECULE
*****
 22 24 0 0 0
SMALL
GASTEIGER

@<TRIPOS>ATOM
      1 C          64.5967   90.2849   14.2595 C.ar    1  UNL1       -0.0000
      2 C          63.9192   90.6284   12.9661 C.ar    1  UNL1       -0.0003
      3 C          64.3844   91.8089   12.1661 C.ar    1  UNL1       -0.0039
      4 C          65.5271   92.6459   12.6595 C.ar    1  UNL1       -0.0178
      5 C          66.2046   92.3025   13.9530 C.ar    1  UNL1       -0.0039
      6 C          65.7394   91.1219   14.7529 C.ar    1  UNL1       -0.0003
      7 N          62.7359   85.5628   17.4594 N.pl3   1  UNL1       -0.3570
      8 C          63.2011   86.7433   16.6594 C.ar    1  UNL1        0.0415
      9 C          62.8731   88.1343   17.1150 C.ar    1  UNL1        0.0141
     10 C          63.3383   89.3148   16.3150 C.ar    1  UNL1        0.0013
     11 C          64.1315   89.1044   15.0595 C.ar    1  UNL1        0.0001
     12 C          64.4595   87.7134   14.6039 C.ar    1  UNL1        0.0013
     13 C          63.9943   86.5329   15.4038 C.ar    1  UNL1        0.0141
     14 H          62.2153   85.7009   18.2835 H       1  UNL1        0.1424
     15 H          62.9512   84.6499   17.1603 H       1  UNL1        0.1424
     16 C          65.9923   93.8265   11.8596 C.3     1  UNL1        0.0527
     17 C          66.8009   93.6166   10.6138 C.ar    1  UNL1       -0.0147
     18 C          67.6327   92.3779   10.4593 C.ar    1  UNL1        0.0167
     19 C          68.4413   92.1680    9.2135 C.ar    1  UNL1        0.0986
     20 N          68.4181   93.1968    8.1221 N.ar    1  UNL1       -0.2423
     21 C          67.5864   94.4354    8.2765 C.ar    1  UNL1        0.0986
     22 C          66.7777   94.6453    9.5224 C.ar    1  UNL1        0.0167
@<TRIPOS>BOND
     1     7     8    1
     2     8     9   ar
     3     9    10   ar
     4    10    11   ar
     5    11     1    1
     6     1     2   ar
     7     2     3   ar
     8     3     4   ar
     9     4    16    1
    10    16    17    1
    11    17    18   ar
    12    18    19   ar
    13    19    20   ar
    14    20    21   ar
    15    21    22   ar
    16     4     5   ar
    17     5     6   ar
    18    11    12   ar
    19    12    13   ar
    20    13     8   ar
    21     6     1   ar
    22    22    17   ar
    23     7    14    1
    24     7    15    1
@<TRIPOS>MOLECULE
*****
 22 24 0 0 0
SMALL
GASTEIGER

@<TRIPOS>ATOM
      1 C          62.8302   88.9850   11.9359 C.ar    1  UNL1       -0.0000
      2 C          62.8509   90.4839   11.8836 C.ar    1  UNL1       -0.0003
      3 C          63.5696   91.2615   12.9460 C.ar    1  UNL1       -0.0039
      4 C          64.2675   90.5403   14.0607 C.ar    1  UNL1       -0.0178
      5 C          64.2468   89.0414   14.1130 C.ar    1  UNL1       -0.0039
      6 C          63.5281   88.2637   13.0506 C.ar    1  UNL1       -0.0003
      7 N          59.9555   85.8743    7.6861 N.pl3   1  UNL1       -0.3570
      8 C          60.6742   86.6520    8.7485 C.ar    1  UNL1        0.0415
      9 C          60.5872   88.1493    8.7703 C.ar    1  UNL1        0.0141
     10 C          61.3059   88.9269    9.8327 C.ar    1  UNL1        0.0013
     11 C          62.1115   88.2073   10.8734 C.ar    1  UNL1        0.0001
     12 C          62.1985   86.7100   10.8516 C.ar    1  UNL1        0.0013
     13 C          61.4798   85.9324    9.7892 C.ar    1  UNL1        0.0141
     14 H          59.4268   86.3467    7.0031 H       1  UNL1        0.1424
     15 H          60.0126   84.8916    7.6718 H       1  UNL1        0.1424
     16 C          64.9862   91.3180   15.1232 C.3     1  UNL1        0.0527
     17 C          66.3965   91.7745   14.8939 C.ar    1  UNL1       -0.0147
     18 C          67.1539   92.4529   15.9968 C.ar    1  UNL1        0.0167
     19 C          68.5641   92.9094   15.7675 C.ar    1  UNL1        0.0986
     20 N          69.2171   92.6877   14.4354 N.ar    1  UNL1       -0.2423
     21 C          68.4598   92.0094   13.3326 C.ar    1  UNL1        0.0986
     22 C          67.0494   91.5528   13.5618 C.ar    1  UNL1        0.0167
@<TRIPOS>BOND
     1     7     8    1
     2     8     9   ar
     3     9    10   ar
     4    10    11   ar
     5    11     1    1
     6     1     2   ar
     7     2     3   ar
     8     3     4   ar
     9     4    16    1
    10    16    17    1
    11    17    18   ar
    12    18    19   ar
    13    19    20   ar
    14    20    21   ar
    15    21    22   ar
    16     4     5   ar
    17     5     6   ar
    18    11    12   ar
    19    12    13   ar
    20    13     8   ar
    21     6     1   ar
    22    22    17   ar
    23     7    14    1
    24     7    15    1
@<TRIPOS>MOLECULE
*****
 22 24 0 0 0
SMALL
GASTEIGER

@<TRIPOS>ATOM
      1 C          64.0381   91.2130   12.3053 C.ar    1  UNL1       -0.0000
      2 C          63.0273   90.3108   12.9488 C.ar    1  UNL1       -0.0003
      3 C          61.8942   89.7551   12.1380 C.ar    1  UNL1       -0.0039
      4 C          61.7720   90.1016   10.6837 C.ar    1  UNL1       -0.0178
      5 C          62.7829   91.0038   10.0402 C.ar    1  UNL1       -0.0039
      6 C          63.9159   91.5595   10.8510 C.ar    1  UNL1       -0.0003
      7 N          68.5703   93.4358   15.5485 N.pl3   1  UNL1       -0.3570
      8 C          67.4373   92.8801   14.7377 C.ar    1  UNL1        0.0415
      9 C          66.9022   93.6525   13.5685 C.ar    1  UNL1        0.0141
     10 C          65.7691   93.0968   12.7577 C.ar    1  UNL1        0.0013
     11 C          65.1712   91.7687   13.1161 C.ar    1  UNL1        0.0001
     12 C          65.7063   90.9963   14.2853 C.ar    1  UNL1        0.0013
     13 C          66.8393   91.5520   15.0960 C.ar    1  UNL1        0.0141
     14 H          68.9628   94.3075   15.3132 H       1  UNL1        0.1424
     15 H          68.9215   92.9288   16.3158 H       1  UNL1        0.1424
     16 C          60.6390   89.5459    9.8729 C.3     1  UNL1        0.0527
     17 C          60.7799   88.2111    9.2034 C.ar    1  UNL1       -0.0147
     18 C          62.0034   87.3770    9.4433 C.ar    1  UNL1        0.0167
     19 C          62.1443   86.0422    8.7737 C.ar    1  UNL1        0.0986
     20 N          61.0617   85.5414    7.8642 N.ar    1  UNL1       -0.2423
     21 C          59.8383   86.3753    7.6242 C.ar    1  UNL1        0.0986
     22 C          59.6973   87.7102    8.2938 C.ar    1  UNL1        0.0167
@<TRIPOS>BOND
     1     7     8    1
     2     8     9   ar
     3     9    10   ar
     4    10    11   ar
     5    11     1    1
     6     1     2   ar
     7     2     3   ar
     8     3     4   ar
     9     4    16    1
    10    16    17    1
    11    17    18   ar
    12    18    19   ar
    13    19    20   ar
    14    20    21   ar
    15    21    22   ar
    16     4     5   ar
    17     5     6   ar
    18    11    12   ar
    19    12    13   ar
    20    13     8   ar
    21     6     1   ar
    22    22    17   ar
    23     7    14    1
    24     7    15    1
@<TRIPOS>MOLECULE
*****
 22 24 0 0 0
SMALL
GASTEIGER

@<TRIPOS>ATOM
      1 C          63.5326   86.1557   13.3587 C.ar    1  UNL1       -0.0000
      2 C          64.2003   86.6085   14.6233 C.ar    1  UNL1       -0.0003
      3 C          64.3881   88.0727   14.8895 C.ar    1  UNL1       -0.0039
      4 C          63.9082   89.0841   13.8911 C.ar    1  UNL1       -0.0178
      5 C          63.2405   88.6313   12.6266 C.ar    1  UNL1       -0.0039
      6 C          63.0527   87.1671   12.3604 C.ar    1  UNL1       -0.0003
      7 N          62.7813   80.2989   12.2940 N.pl3   1  UNL1       -0.3570
      8 C          62.9691   81.7631   12.5602 C.ar    1  UNL1        0.0415
      9 C          62.9701   82.7385   11.4206 C.ar    1  UNL1        0.0141
     10 C          63.1579   84.2027   11.6868 C.ar    1  UNL1        0.0013
     11 C          63.3448   84.6915   13.0925 C.ar    1  UNL1        0.0001
     12 C          63.3438   83.7161   14.2321 C.ar    1  UNL1        0.0013
     13 C          63.1560   82.2519   13.9659 C.ar    1  UNL1        0.0141
     14 H          62.6586   79.9781   11.3713 H       1  UNL1        0.1424
     15 H          62.7807   79.6587   13.0419 H       1  UNL1        0.1424
     16 C          64.0960   90.5483   14.1573 C.3     1  UNL1        0.0527
     17 C          65.2122   91.2950   13.4890 C.ar    1  UNL1       -0.0147
     18 C          66.5705   91.3395   14.1239 C.ar    1  UNL1        0.0167
     19 C          67.6866   92.0861   13.4556 C.ar    1  UNL1        0.0986
     20 N          67.4446   92.7883   12.1524 N.ar    1  UNL1       -0.2423
     21 C          66.0863   92.7438   11.5175 C.ar    1  UNL1        0.0986
     22 C          64.9701   91.9971   12.1858 C.ar    1  UNL1        0.0167
@<TRIPOS>BOND
     1     7     8    1
     2     8     9   ar
     3     9    10   ar
     4    10    11   ar
     5    11     1    1
     6     1     2   ar
     7     2     3   ar
     8     3     4   ar
     9     4    16    1
    10    16    17    1
    11    17    18   ar
    12    18    19   ar
    13    19    20   ar
    14    20    21   ar
    15    21    22   ar
    16     4     5   ar
    17     5     6   ar
    18    11    12   ar
    19    12    13   ar
    20    13     8   ar
    21     6     1   ar
    22    22    17   ar
    23     7    14    1
    24     7    15    1
@<TRIPOS>MOLECULE
*****
 22 24 0 0 0
SMALL
GASTEIGER

@<TRIPOS>ATOM
      1 C          63.5465   86.1666   13.3484 C.ar    1  UNL1       -0.0000
      2 C          63.0610   87.1728   12.3476 C.ar    1  UNL1       -0.0003
      3 C          63.2387   88.6388   12.6111 C.ar    1  UNL1       -0.0039
      4 C          63.9020   89.0985   13.8754 C.ar    1  UNL1       -0.0178
      5 C          64.3876   88.0923   14.8763 C.ar    1  UNL1       -0.0039
      6 C          64.2098   86.6263   14.6128 C.ar    1  UNL1       -0.0003
      7 N          62.8356   80.3029   12.2943 N.pl3   1  UNL1       -0.3570
      8 C          63.0133   81.7688   12.5579 C.ar    1  UNL1        0.0415
      9 C          63.2951   82.2519   13.9497 C.ar    1  UNL1        0.0141
     10 C          63.4728   83.7178   14.2132 C.ar    1  UNL1        0.0013
     11 C          63.3688   84.7007   13.0849 C.ar    1  UNL1        0.0001
     12 C          63.0870   84.2176   11.6931 C.ar    1  UNL1        0.0013
     13 C          62.9092   82.7517   11.4296 C.ar    1  UNL1        0.0141
     14 H          62.9039   79.6578   13.0349 H       1  UNL1        0.1424
     15 H          62.6506   79.9858   11.3808 H       1  UNL1        0.1424
     16 C          64.0797   90.5644   14.1390 C.3     1  UNL1        0.0527
     17 C          65.1945   91.3162   13.4741 C.ar    1  UNL1       -0.0147
     18 C          66.5440   91.3874   14.1251 C.ar    1  UNL1        0.0167
     19 C          67.6588   92.1392   13.4603 C.ar    1  UNL1        0.0986
     20 N          67.4241   92.8198   12.1444 N.ar    1  UNL1       -0.2423
     21 C          66.0747   92.7487   11.4933 C.ar    1  UNL1        0.0986
     22 C          64.9598   91.9968   12.1582 C.ar    1  UNL1        0.0167
@<TRIPOS>BOND
     1     7     8    1
     2     8     9   ar
     3     9    10   ar
     4    10    11   ar
     5    11     1    1
     6     1     2   ar
     7     2     3   ar
     8     3     4   ar
     9     4    16    1
    10    16    17    1
    11    17    18   ar
    12    18    19   ar
    13    19    20   ar
    14    20    21   ar
    15    21    22   ar
    16     4     5   ar
    17     5     6   ar
    18    11    12   ar
    19    12    13   ar
    20    13     8   ar
    21     6     1   ar
    22    22    17   ar
    23     7    14    1
    24     7    15    1
