@<TRIPOS>MOLECULE
*****
 28 30 0 0 0
SMALL
GASTEIGER

@<TRIPOS>ATOM
      1 N          61.0418   88.5665    9.6209 N.3     1  UNL1       -0.1481
      2 C          60.0142   89.1816    8.7177 C.3     1  UNL1        0.0964
      3 C          59.3535   88.0770    7.9474 C.3     1  UNL1        0.0211
      4 C          59.9727   86.7793    8.3745 C.3     1  UNL1        0.0285
      5 C          61.0161   87.0818    9.4088 C.3     1  UNL1        0.1557
      6 C          61.8819   86.0762   10.1082 C.2     1  UNL1        0.2423
      7 O          62.9331   85.3294    9.3417 O.2     1  UNL1       -0.2733
      8 N          61.6966   85.8172   11.5739 N.am    1  UNL1       -0.2828
      9 H          61.0067   86.3073   12.0770 H       1  UNL1        0.1549
     10 C          62.5623   84.8115   12.2733 C.ar    1  UNL1        0.0497
     11 C          62.3340   83.3451   12.0558 C.ar    1  UNL1        0.0104
     12 C          63.1998   82.3394   12.7552 C.ar    1  UNL1       -0.0209
     13 C          62.9714   80.8730   12.5376 C.3     1  UNL1        0.0311
     14 C          64.2938   82.8002   13.6720 C.ar    1  UNL1       -0.0084
     15 C          64.5222   84.2667   13.8895 C.ar    1  UNL1       -0.0209
     16 C          65.6163   84.7275   14.8063 C.3     1  UNL1        0.0311
     17 C          63.6564   85.2723   13.1901 C.ar    1  UNL1        0.0104
     18 S          61.9378   89.3063   10.5696 S.O2    1  UNL1        0.0637
     19 O          62.6984   89.8744    9.4083 O.2     1  UNL1       -0.1528
     20 O          61.1772   88.7381   11.7309 O.2     1  UNL1       -0.1528
     21 C          64.6257   91.5255   13.4157 C.ar    1  UNL1        0.1388
     22 C          63.8251   90.3531   13.9001 C.ar    1  UNL1        0.0383
     23 C          62.9291   89.6134   12.9514 C.ar    1  UNL1        0.0230
     24 C          62.8337   90.0460   11.5183 C.ar    1  UNL1        0.1224
     25 C          63.6343   91.2183   11.0340 C.ar    1  UNL1        0.0230
     26 C          64.5303   91.9581   11.9827 C.ar    1  UNL1        0.0383
     27 C          66.4695   93.3049   13.8444 C.3     1  UNL1        0.2525
     28 O          65.5216   92.2652   14.3644 O.3     1  UNL1       -0.4714
@<TRIPOS>BOND
     1    27    28    1
     2    28    21    1
     3    21    22   ar
     4    22    23   ar
     5    23    24   ar
     6    24    18    1
     7    18    19    2
     8    18    20    2
     9    18     1    1
    10     1     2    1
    11     2     3    1
    12     3     4    1
    13     4     5    1
    14     5     6    1
    15     6     7    2
    16     6     8   am
    17     8    10    1
    18    10    11   ar
    19    11    12   ar
    20    12    13    1
    21    12    14   ar
    22    14    15   ar
    23    15    16    1
    24    15    17   ar
    25    24    25   ar
    26    25    26   ar
    27    26    21   ar
    28     5     1    1
    29    17    10   ar
    30     8     9    1
@<TRIPOS>MOLECULE
*****
 28 30 0 0 0
SMALL
GASTEIGER

@<TRIPOS>ATOM
      1 N          61.0551   88.6229    9.6490 N.3     1  UNL1       -0.1481
      2 C          60.0303   89.2492    8.7504 C.3     1  UNL1        0.0964
      3 C          59.3668   88.1536    7.9697 C.3     1  UNL1        0.0211
      4 C          59.9815   86.8502    8.3858 C.3     1  UNL1        0.0285
      5 C          61.0250   87.1403    9.4236 C.3     1  UNL1        0.1557
      6 C          61.8870   86.1257   10.1147 C.2     1  UNL1        0.2423
      7 O          62.9385   85.3846    9.3432 O.2     1  UNL1       -0.2733
      8 N          61.6975   85.8521   11.5773 N.am    1  UNL1       -0.2828
      9 H          61.0074   86.3385   12.0837 H       1  UNL1        0.1549
     10 C          62.5595   84.8376   12.2684 C.ar    1  UNL1        0.0497
     11 C          63.6572   85.2868   13.1866 C.ar    1  UNL1        0.0104
     12 C          64.5192   84.2723   13.8778 C.ar    1  UNL1       -0.0209
     13 C          65.6169   84.7216   14.7959 C.3     1  UNL1        0.0311
     14 C          64.2834   82.8084   13.6507 C.ar    1  UNL1       -0.0084
     15 C          63.1857   82.3592   12.7325 C.ar    1  UNL1       -0.0209
     16 C          62.9499   80.8953   12.5055 C.3     1  UNL1        0.0311
     17 C          62.3237   83.3737   12.0414 C.ar    1  UNL1        0.0104
     18 S          61.9526   89.3514   10.6050 S.O2    1  UNL1        0.0637
     19 O          61.1663   88.8047   11.7595 O.2     1  UNL1       -0.1528
     20 O          62.7388   89.8980    9.4504 O.2     1  UNL1       -0.1528
     21 C          64.6448   91.5367   13.4731 C.ar    1  UNL1        0.1388
     22 C          63.8018   90.3947   13.9579 C.ar    1  UNL1        0.0383
     23 C          62.9044   89.6662   13.0018 C.ar    1  UNL1        0.0230
     24 C          62.8500   90.0798   11.5610 C.ar    1  UNL1        0.1224
     25 C          63.6930   91.2218   11.0763 C.ar    1  UNL1        0.0230
     26 C          64.5904   91.9503   12.0323 C.ar    1  UNL1        0.0383
     27 C          66.4372   93.3609   13.9309 C.3     1  UNL1        0.2525
     28 O          65.5422   92.2652   14.4292 O.3     1  UNL1       -0.4714
@<TRIPOS>BOND
     1    27    28    1
     2    28    21    1
     3    21    22   ar
     4    22    23   ar
     5    23    24   ar
     6    24    18    1
     7    18    19    2
     8    18    20    2
     9    18     1    1
    10     1     2    1
    11     2     3    1
    12     3     4    1
    13     4     5    1
    14     5     6    1
    15     6     7    2
    16     6     8   am
    17     8    10    1
    18    10    11   ar
    19    11    12   ar
    20    12    13    1
    21    12    14   ar
    22    14    15   ar
    23    15    16    1
    24    15    17   ar
    25    24    25   ar
    26    25    26   ar
    27    26    21   ar
    28     5     1    1
    29    17    10   ar
    30     8     9    1
@<TRIPOS>MOLECULE
*****
 28 30 0 0 0
SMALL
GASTEIGER

@<TRIPOS>ATOM
      1 N          64.5475   91.3101   14.7365 N.3     1  UNL1       -0.1481
      2 C          64.0936   91.2447   16.1647 C.3     1  UNL1        0.0964
      3 C          64.9876   92.1344   16.9765 C.3     1  UNL1        0.0211
      4 C          65.9942   92.7497   16.0501 C.3     1  UNL1        0.0285
      5 C          65.7222   92.2403   14.6657 C.3     1  UNL1        0.1557
      6 C          66.4900   92.5982   13.4278 C.2     1  UNL1        0.2423
      7 O          67.9456   92.2515   13.3217 O.2     1  UNL1       -0.2733
      8 N          65.8025   93.3027   12.2962 N.am    1  UNL1       -0.2828
      9 H          64.8472   93.5302   12.3658 H       1  UNL1        0.1549
     10 C          66.5703   93.6606   11.0583 C.ar    1  UNL1        0.0497
     11 C          67.3576   92.6093   10.3338 C.ar    1  UNL1        0.0104
     12 C          68.1254   92.9672    9.0960 C.ar    1  UNL1       -0.0209
     13 C          68.9126   91.9158    8.3716 C.3     1  UNL1        0.0311
     14 C          68.1060   94.3764    8.5826 C.ar    1  UNL1       -0.0084
     15 C          67.3188   95.4278    9.3070 C.ar    1  UNL1       -0.0209
     16 C          67.2994   96.8370    8.7937 C.3     1  UNL1        0.0311
     17 C          66.5509   95.0699   10.5449 C.ar    1  UNL1        0.0104
     18 S          63.9345   90.5745   13.5819 S.O2    1  UNL1        0.0637
     19 O          63.4505   91.8743   13.0108 O.2     1  UNL1       -0.1528
     20 O          64.4185   89.2747   14.1530 O.2     1  UNL1       -0.1528
     21 C          62.0954   88.3678   10.1181 C.ar    1  UNL1        0.1388
     22 C          62.5635   87.6113   11.3259 C.ar    1  UNL1        0.0383
     23 C          63.1765   88.3469   12.4805 C.ar    1  UNL1        0.0230
     24 C          63.3215   89.8389   12.4273 C.ar    1  UNL1        0.1224
     25 C          62.8535   90.5953   11.2195 C.ar    1  UNL1        0.0230
     26 C          62.2404   89.8597   10.0649 C.ar    1  UNL1        0.0383
     27 C          60.9164   86.2578    9.1652 C.3     1  UNL1        0.2525
     28 O          61.4824   87.6322    8.9635 O.3     1  UNL1       -0.4714
@<TRIPOS>BOND
     1    27    28    1
     2    28    21    1
     3    21    22   ar
     4    22    23   ar
     5    23    24   ar
     6    24    18    1
     7    18    19    2
     8    18    20    2
     9    18     1    1
    10     1     2    1
    11     2     3    1
    12     3     4    1
    13     4     5    1
    14     5     6    1
    15     6     7    2
    16     6     8   am
    17     8    10    1
    18    10    11   ar
    19    11    12   ar
    20    12    13    1
    21    12    14   ar
    22    14    15   ar
    23    15    16    1
    24    15    17   ar
    25    24    25   ar
    26    25    26   ar
    27    26    21   ar
    28     5     1    1
    29    17    10   ar
    30     8     9    1
@<TRIPOS>MOLECULE
*****
 28 30 0 0 0
SMALL
GASTEIGER

@<TRIPOS>ATOM
      1 N          64.4480   91.2481   14.6921 N.3     1  UNL1       -0.1481
      2 C          63.9893   91.1967   16.1193 C.3     1  UNL1        0.0964
      3 C          64.8765   92.0995   16.9242 C.3     1  UNL1        0.0211
      4 C          65.8836   92.7089   15.9944 C.3     1  UNL1        0.0285
      5 C          65.6187   92.1827   14.6149 C.3     1  UNL1        0.1557
      6 C          66.3893   92.5302   13.3757 C.2     1  UNL1        0.2423
      7 O          67.7999   92.0476   13.2097 O.2     1  UNL1       -0.2733
      8 N          65.7495   93.3601   12.3026 N.am    1  UNL1       -0.2828
      9 H          64.8237   93.6769   12.4115 H       1  UNL1        0.1549
     10 C          66.5201   93.7076   11.0635 C.ar    1  UNL1        0.0497
     11 C          66.4765   95.1051   10.5203 C.ar    1  UNL1        0.0104
     12 C          67.2471   95.4525    9.2811 C.ar    1  UNL1       -0.0209
     13 C          67.2034   96.8500    8.7380 C.3     1  UNL1        0.0311
     14 C          68.0614   94.4025    8.5852 C.ar    1  UNL1       -0.0084
     15 C          68.1050   93.0050    9.1284 C.ar    1  UNL1       -0.0209
     16 C          68.9193   91.9549    8.4325 C.3     1  UNL1        0.0311
     17 C          67.3344   92.6575   10.3675 C.ar    1  UNL1        0.0104
     18 S          63.8423   90.4969   13.5437 S.O2    1  UNL1        0.0637
     19 O          64.2035   89.1986   14.2025 O.2     1  UNL1       -0.1528
     20 O          63.4812   91.7952   12.8848 O.2     1  UNL1       -0.1528
     21 C          62.0253   88.2431   10.0985 C.ar    1  UNL1        0.1388
     22 C          62.0817   89.7417   10.0681 C.ar    1  UNL1        0.0383
     23 C          62.6874   90.4930   11.2165 C.ar    1  UNL1        0.0230
     24 C          63.2367   89.7456   12.3953 C.ar    1  UNL1        0.1224
     25 C          63.1803   88.2470   12.4257 C.ar    1  UNL1        0.0230
     26 C          62.5747   87.4958   11.2773 C.ar    1  UNL1        0.0383
     27 C          59.9874   87.0509    9.0143 C.3     1  UNL1        0.2525
     28 O          61.4197   87.4919    8.9501 O.3     1  UNL1       -0.4714
@<TRIPOS>BOND
     1    27    28    1
     2    28    21    1
     3    21    22   ar
     4    22    23   ar
     5    23    24   ar
     6    24    18    1
     7    18    19    2
     8    18    20    2
     9    18     1    1
    10     1     2    1
    11     2     3    1
    12     3     4    1
    13     4     5    1
    14     5     6    1
    15     6     7    2
    16     6     8   am
    17     8    10    1
    18    10    11   ar
    19    11    12   ar
    20    12    13    1
    21    12    14   ar
    22    14    15   ar
    23    15    16    1
    24    15    17   ar
    25    24    25   ar
    26    25    26   ar
    27    26    21   ar
    28     5     1    1
    29    17    10   ar
    30     8     9    1
@<TRIPOS>MOLECULE
*****
 28 30 0 0 0
SMALL
GASTEIGER

@<TRIPOS>ATOM
      1 N          63.6142   83.6992   13.8660 N.3     1  UNL1       -0.1481
      2 C          63.9876   82.4015   14.5191 C.3     1  UNL1        0.0964
      3 C          63.8662   81.3143   13.4928 C.3     1  UNL1        0.0211
      4 C          63.4178   81.9401   12.2054 C.3     1  UNL1        0.0285
      5 C          63.2621   83.4140   12.4361 C.3     1  UNL1        0.1557
      6 C          62.8300   84.4252   11.4159 C.2     1  UNL1        0.2423
      7 O          63.2748   84.2890    9.9898 O.2     1  UNL1       -0.2733
      8 N          61.9533   85.5726   11.8217 N.am    1  UNL1       -0.2828
      9 H          61.6615   85.6620   12.7577 H       1  UNL1        0.1549
     10 C          61.5213   86.5839   10.8015 C.ar    1  UNL1        0.0497
     11 C          62.0347   87.9912   10.8764 C.ar    1  UNL1        0.0104
     12 C          61.6027   89.0025    9.8562 C.ar    1  UNL1       -0.0209
     13 C          62.1162   90.4098    9.9311 C.3     1  UNL1        0.0311
     14 C          60.6572   88.6063    8.7612 C.ar    1  UNL1       -0.0084
     15 C          60.1438   87.1989    8.6863 C.ar    1  UNL1       -0.0209
     16 C          59.1983   86.8028    7.5913 C.3     1  UNL1        0.0311
     17 C          60.5758   86.1877    9.7065 C.ar    1  UNL1        0.0104
     18 S          63.5961   85.0457   14.5268 S.O2    1  UNL1        0.0637
     19 O          65.0700   85.1840   14.2854 O.2     1  UNL1       -0.1528
     20 O          62.1221   84.9074   14.7683 O.2     1  UNL1       -0.1528
     21 C          63.5418   89.0851   16.5093 C.ar    1  UNL1        0.1388
     22 C          63.0237   87.8831   17.2419 C.ar    1  UNL1        0.0383
     23 C          63.0418   86.5366   16.5811 C.ar    1  UNL1        0.0230
     24 C          63.5780   86.3921   15.1877 C.ar    1  UNL1        0.1224
     25 C          64.0961   87.5941   14.4551 C.ar    1  UNL1        0.0230
     26 C          64.0780   88.9406   15.1159 C.ar    1  UNL1        0.0383
     27 C          64.1082   91.6203   16.4665 C.3     1  UNL1        0.2525
     28 O          63.5237   90.4316   17.1701 O.3     1  UNL1       -0.4714
@<TRIPOS>BOND
     1    27    28    1
     2    28    21    1
     3    21    22   ar
     4    22    23   ar
     5    23    24   ar
     6    24    18    1
     7    18    19    2
     8    18    20    2
     9    18     1    1
    10     1     2    1
    11     2     3    1
    12     3     4    1
    13     4     5    1
    14     5     6    1
    15     6     7    2
    16     6     8   am
    17     8    10    1
    18    10    11   ar
    19    11    12   ar
    20    12    13    1
    21    12    14   ar
    22    14    15   ar
    23    15    16    1
    24    15    17   ar
    25    24    25   ar
    26    25    26   ar
    27    26    21   ar
    28     5     1    1
    29    17    10   ar
    30     8     9    1
@<TRIPOS>MOLECULE
*****
 28 30 0 0 0
SMALL
GASTEIGER

@<TRIPOS>ATOM
      1 N          63.6200   83.7095   13.8717 N.3     1  UNL1       -0.1481
      2 C          63.9962   82.4132   14.5259 C.3     1  UNL1        0.0964
      3 C          63.8754   81.3245   13.5011 C.3     1  UNL1        0.0211
      4 C          63.4245   81.9480   12.2134 C.3     1  UNL1        0.0285
      5 C          63.2666   83.4220   12.4425 C.3     1  UNL1        0.1557
      6 C          62.8318   84.4313   11.4216 C.2     1  UNL1        0.2423
      7 O          63.2747   84.2938    9.9950 O.2     1  UNL1       -0.2733
      8 N          61.9541   85.5780   11.8271 N.am    1  UNL1       -0.2828
      9 H          61.6634   85.6683   12.7634 H       1  UNL1        0.1549
     10 C          61.5193   86.5873   10.8062 C.ar    1  UNL1        0.0497
     11 C          60.5773   86.1870    9.7097 C.ar    1  UNL1        0.0104
     12 C          60.1424   87.1963    8.6888 C.ar    1  UNL1       -0.0209
     13 C          59.2005   86.7958    7.5923 C.3     1  UNL1        0.0311
     14 C          60.6496   88.6059    8.7644 C.ar    1  UNL1       -0.0084
     15 C          61.5915   89.0063    9.8609 C.ar    1  UNL1       -0.0209
     16 C          62.0987   90.4159    9.9365 C.3     1  UNL1        0.0311
     17 C          62.0264   87.9970   10.8818 C.ar    1  UNL1        0.0104
     18 S          63.6005   85.0568   14.5309 S.O2    1  UNL1        0.0637
     19 O          62.1272   84.9160   14.7751 O.2     1  UNL1       -0.1528
     20 O          65.0737   85.1976   14.2866 O.2     1  UNL1       -0.1528
     21 C          63.5420   89.0985   16.5085 C.ar    1  UNL1        0.1388
     22 C          64.0760   88.9534   15.1143 C.ar    1  UNL1        0.0383
     23 C          64.0955   87.6061   14.4551 C.ar    1  UNL1        0.0230
     24 C          63.5810   86.4040   15.1901 C.ar    1  UNL1        0.1224
     25 C          63.0471   86.5492   16.5842 C.ar    1  UNL1        0.0230
     26 C          63.0276   87.8964   17.2434 C.ar    1  UNL1        0.0383
     27 C          64.1175   91.6317   16.4681 C.3     1  UNL1        0.2525
     28 O          63.5225   90.4458   17.1677 O.3     1  UNL1       -0.4714
@<TRIPOS>BOND
     1    27    28    1
     2    28    21    1
     3    21    22   ar
     4    22    23   ar
     5    23    24   ar
     6    24    18    1
     7    18    19    2
     8    18    20    2
     9    18     1    1
    10     1     2    1
    11     2     3    1
    12     3     4    1
    13     4     5    1
    14     5     6    1
    15     6     7    2
    16     6     8   am
    17     8    10    1
    18    10    11   ar
    19    11    12   ar
    20    12    13    1
    21    12    14   ar
    22    14    15   ar
    23    15    16    1
    24    15    17   ar
    25    24    25   ar
    26    25    26   ar
    27    26    21   ar
    28     5     1    1
    29    17    10   ar
    30     8     9    1
@<TRIPOS>MOLECULE
*****
 28 30 0 0 0
SMALL
GASTEIGER

@<TRIPOS>ATOM
      1 N          63.1576   89.7594   14.0027 N.3     1  UNL1       -0.1481
      2 C          62.8317   89.3835   15.4178 C.3     1  UNL1        0.0964
      3 C          63.5772   90.3139   16.3280 C.3     1  UNL1        0.0211
      4 C          64.3638   91.2649   15.4755 C.3     1  UNL1        0.0285
      5 C          64.1045   90.9222   14.0384 C.3     1  UNL1        0.1557
      6 C          64.6894   91.6199   12.8463 C.2     1  UNL1        0.2423
      7 O          64.0593   91.4523   11.4953 O.2     1  UNL1       -0.2733
      8 N          65.9042   92.4852   13.0050 N.am    1  UNL1       -0.2828
      9 H          66.3177   92.5952   13.8916 H       1  UNL1        0.1549
     10 C          66.4891   93.1828   11.8129 C.ar    1  UNL1        0.0497
     11 C          67.3179   92.4148   10.8263 C.ar    1  UNL1        0.0104
     12 C          67.9028   93.1125    9.6342 C.ar    1  UNL1       -0.0209
     13 C          68.7316   92.3445    8.6478 C.3     1  UNL1        0.0311
     14 C          67.6589   94.5782    9.4286 C.ar    1  UNL1       -0.0084
     15 C          66.8301   95.3462   10.4151 C.ar    1  UNL1       -0.0209
     16 C          66.5862   96.8119   10.2095 C.3     1  UNL1        0.0311
     17 C          66.2452   94.6485   11.6072 C.ar    1  UNL1        0.0104
     18 S          62.6293   89.0901   12.7686 S.O2    1  UNL1        0.0637
     19 O          61.4821   90.0560   12.7358 O.2     1  UNL1       -0.1528
     20 O          63.7764   88.1243   12.8014 O.2     1  UNL1       -0.1528
     21 C          61.0445   87.0823    9.0664 C.ar    1  UNL1        0.1388
     22 C          61.7625   86.2762   10.1077 C.ar    1  UNL1        0.0383
     23 C          62.2908   86.9455   11.3418 C.ar    1  UNL1        0.0230
     24 C          62.1010   88.4208   11.5345 C.ar    1  UNL1        0.1224
     25 C          61.3829   89.2269   10.4931 C.ar    1  UNL1        0.0230
     26 C          60.8546   88.5576    9.2591 C.ar    1  UNL1        0.0383
     27 C          59.0539   86.4869    7.5065 C.3     1  UNL1        0.2525
     28 O          60.5162   86.4130    7.8323 O.3     1  UNL1       -0.4714
@<TRIPOS>BOND
     1    27    28    1
     2    28    21    1
     3    21    22   ar
     4    22    23   ar
     5    23    24   ar
     6    24    18    1
     7    18    19    2
     8    18    20    2
     9    18     1    1
    10     1     2    1
    11     2     3    1
    12     3     4    1
    13     4     5    1
    14     5     6    1
    15     6     7    2
    16     6     8   am
    17     8    10    1
    18    10    11   ar
    19    11    12   ar
    20    12    13    1
    21    12    14   ar
    22    14    15   ar
    23    15    16    1
    24    15    17   ar
    25    24    25   ar
    26    25    26   ar
    27    26    21   ar
    28     5     1    1
    29    17    10   ar
    30     8     9    1
@<TRIPOS>MOLECULE
*****
 28 30 0 0 0
SMALL
GASTEIGER

@<TRIPOS>ATOM
      1 N          63.1346   89.7335   13.9550 N.3     1  UNL1       -0.1481
      2 C          62.8023   89.3582   15.3688 C.3     1  UNL1        0.0964
      3 C          63.5372   90.2944   16.2818 C.3     1  UNL1        0.0211
      4 C          64.3237   91.2482   15.4323 C.3     1  UNL1        0.0285
      5 C          64.0749   90.9015   13.9943 C.3     1  UNL1        0.1557
      6 C          64.6632   91.6002   12.8045 C.2     1  UNL1        0.2423
      7 O          64.0130   91.4669   11.4592 O.2     1  UNL1       -0.2733
      8 N          65.9015   92.4323   12.9597 N.am    1  UNL1       -0.2828
      9 H          66.3282   92.5198   13.8426 H       1  UNL1        0.1549
     10 C          66.4897   93.1310   11.7699 C.ar    1  UNL1        0.0497
     11 C          66.2299   94.5925   11.5542 C.ar    1  UNL1        0.0104
     12 C          66.8182   95.2912   10.3643 C.ar    1  UNL1       -0.0209
     13 C          66.5583   96.7527   10.1487 C.3     1  UNL1        0.0311
     14 C          67.6663   94.5285    9.3902 C.ar    1  UNL1       -0.0084
     15 C          67.9261   93.0670    9.6059 C.ar    1  UNL1       -0.0209
     16 C          68.7742   92.3043    8.6318 C.3     1  UNL1        0.0311
     17 C          67.3378   92.3683   10.7958 C.ar    1  UNL1        0.0104
     18 S          62.6175   89.0591   12.7190 S.O2    1  UNL1        0.0637
     19 O          61.4930   90.0493   12.6491 O.2     1  UNL1       -0.1528
     20 O          63.7420   88.0688   12.7888 O.2     1  UNL1       -0.1528
     21 C          61.0661   87.0359    9.0109 C.ar    1  UNL1        0.1388
     22 C          60.8440   88.5056    9.2121 C.ar    1  UNL1        0.0383
     23 C          61.3611   89.1800   10.4481 C.ar    1  UNL1        0.0230
     24 C          62.1004   88.3847   11.4829 C.ar    1  UNL1        0.1224
     25 C          62.3225   86.9149   11.2817 C.ar    1  UNL1        0.0230
     26 C          61.8054   86.2405   10.0457 C.ar    1  UNL1        0.0383
     27 C          61.3282   85.2430    7.1489 C.3     1  UNL1        0.2525
     28 O          60.5490   86.3615    7.7748 O.3     1  UNL1       -0.4714
@<TRIPOS>BOND
     1    27    28    1
     2    28    21    1
     3    21    22   ar
     4    22    23   ar
     5    23    24   ar
     6    24    18    1
     7    18    19    2
     8    18    20    2
     9    18     1    1
    10     1     2    1
    11     2     3    1
    12     3     4    1
    13     4     5    1
    14     5     6    1
    15     6     7    2
    16     6     8   am
    17     8    10    1
    18    10    11   ar
    19    11    12   ar
    20    12    13    1
    21    12    14   ar
    22    14    15   ar
    23    15    16    1
    24    15    17   ar
    25    24    25   ar
    26    25    26   ar
    27    26    21   ar
    28     5     1    1
    29    17    10   ar
    30     8     9    1
@<TRIPOS>MOLECULE
*****
 28 30 0 0 0
SMALL
GASTEIGER

@<TRIPOS>ATOM
      1 N          63.1200   85.9435   16.0717 N.3     1  UNL1       -0.1481
      2 C          62.7718   85.5473   17.4759 C.3     1  UNL1        0.0964
      3 C          62.7576   86.7887   18.3178 C.3     1  UNL1        0.0211
      4 C          63.0970   87.9521   17.4340 C.3     1  UNL1        0.0285
      5 C          63.3209   87.4298   16.0458 C.3     1  UNL1        0.1557
      6 C          63.6824   88.2498   14.8429 C.2     1  UNL1        0.2423
      7 O          63.9461   87.5771   13.5283 O.2     1  UNL1       -0.2733
      8 N          63.7801   89.7424   14.9545 N.am    1  UNL1       -0.2828
      9 H          63.6070   90.1839   15.8172 H       1  UNL1        0.1549
     10 C          64.1415   90.5624   13.7516 C.ar    1  UNL1        0.0497
     11 C          63.3507   90.4243   12.4845 C.ar    1  UNL1        0.0104
     12 C          63.7121   91.2443   11.2816 C.ar    1  UNL1       -0.0209
     13 C          62.9212   91.1061   10.0146 C.3     1  UNL1        0.0311
     14 C          64.8644   92.2024   11.3458 C.ar    1  UNL1       -0.0084
     15 C          65.6553   92.3406   12.6129 C.ar    1  UNL1       -0.0209
     16 C          66.8076   93.2987   12.6770 C.3     1  UNL1        0.0311
     17 C          65.2938   91.5206   13.8158 C.ar    1  UNL1        0.0104
     18 S          63.2452   85.0163   14.8992 S.O2    1  UNL1        0.0637
     19 O          61.7519   84.8859   14.8429 O.2     1  UNL1       -0.1528
     20 O          64.7384   85.1468   14.9556 O.2     1  UNL1       -0.1528
     21 C          63.6208   82.2347   11.3819 C.ar    1  UNL1        0.1388
     22 C          63.2265   83.6660   11.1675 C.ar    1  UNL1        0.0383
     23 C          63.1013   84.5932   12.3399 C.ar    1  UNL1        0.0230
     24 C          63.3704   84.0891   13.7268 C.ar    1  UNL1        0.1224
     25 C          63.7647   82.6579   13.9412 C.ar    1  UNL1        0.0230
     26 C          63.8899   81.7307   12.7688 C.ar    1  UNL1        0.0383
     27 C          62.9517   80.0357   10.1709 C.3     1  UNL1        0.2525
     28 O          63.7460   81.3075   10.2095 O.3     1  UNL1       -0.4714
@<TRIPOS>BOND
     1    27    28    1
     2    28    21    1
     3    21    22   ar
     4    22    23   ar
     5    23    24   ar
     6    24    18    1
     7    18    19    2
     8    18    20    2
     9    18     1    1
    10     1     2    1
    11     2     3    1
    12     3     4    1
    13     4     5    1
    14     5     6    1
    15     6     7    2
    16     6     8   am
    17     8    10    1
    18    10    11   ar
    19    11    12   ar
    20    12    13    1
    21    12    14   ar
    22    14    15   ar
    23    15    16    1
    24    15    17   ar
    25    24    25   ar
    26    25    26   ar
    27    26    21   ar
    28     5     1    1
    29    17    10   ar
    30     8     9    1
