@<TRIPOS>MOLECULE
*****
 34 37 0 0 0
SMALL
GASTEIGER

@<TRIPOS>ATOM
      1 C          63.3937   87.5353   12.7359 C.ar    1  UNL1        0.1633
      2 N          63.6936   86.2239   13.3993 N.ar    1  UNL1       -0.2297
      3 C          63.1770   84.9472   12.8050 C.ar    1  UNL1        0.0756
      4 C          62.3605   84.9820   11.5472 C.ar    1  UNL1        0.0258
      5 C          62.0606   86.2935   10.8837 C.ar    1  UNL1        0.1306
      6 N          62.5772   87.5701   11.4780 N.ar    1  UNL1       -0.2122
      7 C          61.8440   83.7053   10.9528 C.3     1  UNL1        0.0478
      8 C          62.1439   82.3939   11.6163 C.3     1  UNL1        0.0772
      9 N          62.9604   82.3592   12.8741 N.3     1  UNL1       -0.2687
     10 C          63.4770   83.6358   13.4685 C.3     1  UNL1        0.1184
     11 N          61.2441   86.3282    9.6259 N.pl3   1  UNL1       -0.2900
     12 C          59.8700   86.9295    9.6401 C.3     1  UNL1        0.1242
     13 C          59.0535   86.9642    8.3823 C.3     1  UNL1        0.1636
     14 O          59.6111   86.3977    7.1102 O.3     1  UNL1       -0.3502
     15 C          60.9853   85.7964    7.0960 C.3     1  UNL1        0.1618
     16 C          61.8018   85.7617    8.3538 C.3     1  UNL1        0.1038
     17 C          63.1759   85.1604    8.3396 C.3     1  UNL1        0.0241
     18 C          64.9434   91.3654   14.5189 C.ar    1  UNL1        0.0516
     19 C          64.9478   90.1043   15.3311 C.ar    1  UNL1        0.0148
     20 C          64.4312   88.8277   14.7368 C.ar    1  UNL1        0.0043
     21 C          63.9103   88.8121   13.3302 C.ar    1  UNL1        0.0359
     22 C          63.9059   90.0731   12.5180 C.ar    1  UNL1        0.0043
     23 C          64.4224   91.3498   13.1124 C.ar    1  UNL1        0.0148
     24 N          67.4525   94.1832   15.7496 N.am    1  UNL1       -0.2887
     25 C          66.9359   92.9065   15.1553 C.2     1  UNL1        0.3045
     26 O          67.8952   91.8942   14.6029 O.2     1  UNL1       -0.2525
     27 N          65.4600   92.6421   15.1133 N.am    1  UNL1       -0.2683
     28 H          66.8229   94.8475   16.1121 H       1  UNL1        0.1510
     29 H          64.8303   93.3065   15.4758 H       1  UNL1        0.1564
     30 C          69.8494   93.4582   16.4417 C.3     1  UNL1        0.0230
     31 C          68.9284   94.4476   15.7916 C.3     1  UNL1        0.0910
     32 C          63.2603   81.0477   13.5376 C.3     1  UNL1        0.0579
     33 C          64.5724   80.8427   14.2349 C.3     1  UNL1        0.0173
     34 C          62.2481   79.9412   13.5036 C.3     1  UNL1        0.0173
@<TRIPOS>BOND
     1    30    31    1
     2    31    24    1
     3    24    25   am
     4    25    26    2
     5    25    27   am
     6    27    18    1
     7    18    19   ar
     8    19    20   ar
     9    20    21   ar
    10    21     1    1
    11     1     2   ar
    12     2     3   ar
    13     3     4   ar
    14     4     5   ar
    15     5    11    1
    16    11    12    1
    17    12    13    1
    18    13    14    1
    19    14    15    1
    20    15    16    1
    21    16    17    1
    22     5     6   ar
    23     4     7    1
    24     7     8    1
    25     8     9    1
    26     9    32    1
    27    32    33    1
    28    32    34    1
    29     9    10    1
    30    21    22   ar
    31    22    23   ar
    32    23    18   ar
    33     6     1   ar
    34    10     3    1
    35    16    11    1
    36    24    28    1
    37    27    29    1
@<TRIPOS>MOLECULE
*****
 34 37 0 0 0
SMALL
GASTEIGER

@<TRIPOS>ATOM
      1 C          63.7092   89.2144   12.6936 C.ar    1  UNL1        0.1633
      2 N          62.8083   89.5032   11.5296 N.ar    1  UNL1       -0.2297
      3 C          62.0634   88.3852   10.8623 C.ar    1  UNL1        0.0756
      4 C          62.2194   86.9785   11.3590 C.ar    1  UNL1        0.0258
      5 C          63.1204   86.6897   12.5230 C.ar    1  UNL1        0.1306
      6 N          63.8653   87.8076   13.1903 N.ar    1  UNL1       -0.2122
      7 C          61.4746   85.8605   10.6917 C.3     1  UNL1        0.0478
      8 C          60.5736   86.1493    9.5277 C.3     1  UNL1        0.0772
      9 N          60.4175   87.5561    9.0310 N.3     1  UNL1       -0.2687
     10 C          61.1624   88.6740    9.6983 C.3     1  UNL1        0.1184
     11 N          63.2765   85.2829   13.0196 N.pl3   1  UNL1       -0.2900
     12 C          62.9330   84.1292   12.1248 C.3     1  UNL1        0.1242
     13 C          63.0891   82.7224   12.6215 C.3     1  UNL1        0.1636
     14 O          63.5887   82.4694   14.0130 O.3     1  UNL1       -0.3502
     15 C          63.9323   83.6232   14.9079 C.3     1  UNL1        0.1618
     16 C          63.7762   85.0300   14.4112 C.3     1  UNL1        0.1038
     17 C          64.1197   86.1837   15.3061 C.3     1  UNL1        0.0241
     18 C          65.9439   92.5682   14.6957 C.ar    1  UNL1        0.0516
     19 C          65.3106   91.4896   15.5236 C.ar    1  UNL1        0.0148
     20 C          64.5657   90.3717   14.8563 C.ar    1  UNL1        0.0043
     21 C          64.4542   90.3324   13.3609 C.ar    1  UNL1        0.0359
     22 C          65.0875   91.4109   12.5330 C.ar    1  UNL1        0.0043
     23 C          65.8324   92.5288   13.2003 C.ar    1  UNL1        0.0148
     24 N          68.9222   94.7198   16.1957 N.am    1  UNL1       -0.2887
     25 C          68.1773   93.6019   15.5284 C.2     1  UNL1        0.3045
     26 O          68.9209   92.3997   15.0264 O.2     1  UNL1       -0.2525
     27 N          66.6888   93.6862   15.3630 N.am    1  UNL1       -0.2683
     28 H          68.4342   95.5088   16.5251 H       1  UNL1        0.1510
     29 H          66.2008   94.4752   15.6925 H       1  UNL1        0.1564
     30 C          71.3156   95.1570   15.2844 C.3     1  UNL1        0.0230
     31 C          70.4107   94.6356   16.3611 C.3     1  UNL1        0.0910
     32 C          59.5165   87.8448    7.8670 C.3     1  UNL1        0.0579
     33 C          58.5684   86.7926    7.3734 C.3     1  UNL1        0.0173
     34 C          59.5637   89.1859    7.1967 C.3     1  UNL1        0.0173
@<TRIPOS>BOND
     1    30    31    1
     2    31    24    1
     3    24    25   am
     4    25    26    2
     5    25    27   am
     6    27    18    1
     7    18    19   ar
     8    19    20   ar
     9    20    21   ar
    10    21     1    1
    11     1     2   ar
    12     2     3   ar
    13     3     4   ar
    14     4     5   ar
    15     5    11    1
    16    11    12    1
    17    12    13    1
    18    13    14    1
    19    14    15    1
    20    15    16    1
    21    16    17    1
    22     5     6   ar
    23     4     7    1
    24     7     8    1
    25     8     9    1
    26     9    32    1
    27    32    33    1
    28    32    34    1
    29     9    10    1
    30    21    22   ar
    31    22    23   ar
    32    23    18   ar
    33     6     1   ar
    34    10     3    1
    35    16    11    1
    36    24    28    1
    37    27    29    1
@<TRIPOS>MOLECULE
*****
 34 37 0 0 0
SMALL
GASTEIGER

@<TRIPOS>ATOM
      1 C          60.0423   92.9625    2.6359 C.ar    1  UNL1        0.1633
      2 N          58.9642   93.3279    1.6591 N.ar    1  UNL1       -0.2297
      3 C          59.2547   94.2923    0.5474 C.ar    1  UNL1        0.0756
      4 C          60.6234   94.8911    0.4126 C.ar    1  UNL1        0.0258
      5 C          61.7015   94.5255    1.3894 C.ar    1  UNL1        0.1306
      6 N          61.4110   93.5613    2.5010 N.ar    1  UNL1       -0.2122
      7 C          60.9140   95.8553   -0.6991 C.3     1  UNL1        0.0478
      8 C          59.8358   96.2208   -1.6758 C.3     1  UNL1        0.0772
      9 N          58.4672   95.6220   -1.5409 N.3     1  UNL1       -0.2687
     10 C          58.1766   94.6577   -0.4293 C.3     1  UNL1        0.1184
     11 N          63.0702   95.1243    1.2545 N.pl3   1  UNL1       -0.2900
     12 C          63.4845   96.2569    2.1464 C.3     1  UNL1        0.1242
     13 C          64.8532   96.8557    2.0116 C.3     1  UNL1        0.1636
     14 O          65.8075   96.3219    0.9848 O.3     1  UNL1       -0.3502
     15 C          65.3932   95.1893    0.0928 C.3     1  UNL1        0.1618
     16 C          64.0245   94.5905    0.2277 C.3     1  UNL1        0.1038
     17 C          63.6102   93.4579   -0.6642 C.3     1  UNL1        0.0241
     18 C          59.1706   90.0697    5.9708 C.ar    1  UNL1        0.0516
     19 C          58.0559   90.8621    5.3549 C.ar    1  UNL1        0.0148
     20 C          58.3465   91.8264    4.2432 C.ar    1  UNL1        0.0043
     21 C          59.7518   91.9982    3.7475 C.ar    1  UNL1        0.0359
     22 C          60.8665   91.2057    4.3635 C.ar    1  UNL1        0.0043
     23 C          60.5759   90.2415    5.4751 C.ar    1  UNL1        0.0148
     24 N          59.4962   88.0771    9.3875 N.am    1  UNL1       -0.2887
     25 C          59.7867   89.0413    8.2758 C.2     1  UNL1        0.3045
     26 O          60.9838   89.9415    8.3574 O.2     1  UNL1       -0.2525
     27 N          58.8801   89.1054    7.0825 N.am    1  UNL1       -0.2683
     28 H          58.7105   87.4862    9.3339 H       1  UNL1        0.1510
     29 H          58.0944   88.5145    7.0289 H       1  UNL1        0.1564
     30 C          61.1320   86.7420   10.9013 C.3     1  UNL1        0.0230
     31 C          60.4028   88.0130   10.5808 C.3     1  UNL1        0.0910
     32 C          57.3890   95.9875   -2.5178 C.3     1  UNL1        0.0579
     33 C          55.9468   95.8388   -2.1333 C.3     1  UNL1        0.0173
     34 C          57.7532   96.5017   -3.8790 C.3     1  UNL1        0.0173
@<TRIPOS>BOND
     1    30    31    1
     2    31    24    1
     3    24    25   am
     4    25    26    2
     5    25    27   am
     6    27    18    1
     7    18    19   ar
     8    19    20   ar
     9    20    21   ar
    10    21     1    1
    11     1     2   ar
    12     2     3   ar
    13     3     4   ar
    14     4     5   ar
    15     5    11    1
    16    11    12    1
    17    12    13    1
    18    13    14    1
    19    14    15    1
    20    15    16    1
    21    16    17    1
    22     5     6   ar
    23     4     7    1
    24     7     8    1
    25     8     9    1
    26     9    32    1
    27    32    33    1
    28    32    34    1
    29     9    10    1
    30    21    22   ar
    31    22    23   ar
    32    23    18   ar
    33     6     1   ar
    34    10     3    1
    35    16    11    1
    36    24    28    1
    37    27    29    1
@<TRIPOS>MOLECULE
*****
 34 37 0 0 0
SMALL
GASTEIGER

@<TRIPOS>ATOM
      1 C          60.8459   93.2033   -0.0067 C.ar    1  UNL1        0.1633
      2 N          62.0996   93.1775   -0.8297 N.ar    1  UNL1       -0.2297
      3 C          62.0837   93.6963   -2.2371 C.ar    1  UNL1        0.0756
      4 C          60.8141   94.2409   -2.8214 C.ar    1  UNL1        0.0258
      5 C          59.5603   94.2666   -1.9983 C.ar    1  UNL1        0.1306
      6 N          59.5762   93.7479   -0.5910 N.ar    1  UNL1       -0.2122
      7 C          60.7981   94.7596   -4.2287 C.3     1  UNL1        0.0478
      8 C          62.0519   94.7338   -5.0518 C.3     1  UNL1        0.0772
      9 N          63.3216   94.1893   -4.4675 N.3     1  UNL1       -0.2687
     10 C          63.3375   93.6705   -3.0601 C.3     1  UNL1        0.1184
     11 N          58.2906   94.8112   -2.5826 N.pl3   1  UNL1       -0.2900
     12 C          57.9592   96.2663   -2.4319 C.3     1  UNL1        0.1242
     13 C          56.6896   96.8108   -3.0162 C.3     1  UNL1        0.1636
     14 O          55.7513   95.9003   -3.7512 O.3     1  UNL1       -0.3502
     15 C          56.0826   94.4451   -3.9020 C.3     1  UNL1        0.1618
     16 C          57.3522   93.9005   -3.3177 C.3     1  UNL1        0.1038
     17 C          57.6836   92.4454   -3.4685 C.3     1  UNL1        0.0241
     18 C          60.8934   91.6471    4.2153 C.ar    1  UNL1        0.0516
     19 C          59.6898   92.3782    3.6991 C.ar    1  UNL1        0.0148
     20 C          59.6739   92.8970    2.2917 C.ar    1  UNL1        0.0043
     21 C          60.8617   92.6845    1.4007 C.ar    1  UNL1        0.0359
     22 C          62.0654   91.9533    1.9169 C.ar    1  UNL1        0.0043
     23 C          62.0812   91.4346    3.3243 C.ar    1  UNL1        0.0148
     24 N          59.8978   89.6100    7.4726 N.am    1  UNL1       -0.2887
     25 C          59.8820   90.1288    6.0653 C.2     1  UNL1        0.3045
     26 O          58.8388   89.6482    5.1004 O.2     1  UNL1       -0.2525
     27 N          60.9093   91.1283    5.6227 N.am    1  UNL1       -0.2683
     28 H          60.5825   89.9255    8.1058 H       1  UNL1        0.1510
     29 H          61.5939   91.4437    6.2560 H       1  UNL1        0.1564
     30 C          59.1261   87.1434    7.7368 C.3     1  UNL1        0.0230
     31 C          58.8706   88.6106    7.9151 C.3     1  UNL1        0.0910
     32 C          64.5754   94.1635   -5.2906 C.3     1  UNL1        0.0579
     33 C          65.1307   95.4391   -5.8514 C.3     1  UNL1        0.0173
     34 C          65.2738   92.8622   -5.5528 C.3     1  UNL1        0.0173
@<TRIPOS>BOND
     1    30    31    1
     2    31    24    1
     3    24    25   am
     4    25    26    2
     5    25    27   am
     6    27    18    1
     7    18    19   ar
     8    19    20   ar
     9    20    21   ar
    10    21     1    1
    11     1     2   ar
    12     2     3   ar
    13     3     4   ar
    14     4     5   ar
    15     5    11    1
    16    11    12    1
    17    12    13    1
    18    13    14    1
    19    14    15    1
    20    15    16    1
    21    16    17    1
    22     5     6   ar
    23     4     7    1
    24     7     8    1
    25     8     9    1
    26     9    32    1
    27    32    33    1
    28    32    34    1
    29     9    10    1
    30    21    22   ar
    31    22    23   ar
    32    23    18   ar
    33     6     1   ar
    34    10     3    1
    35    16    11    1
    36    24    28    1
    37    27    29    1
@<TRIPOS>MOLECULE
*****
 34 37 0 0 0
SMALL
GASTEIGER

@<TRIPOS>ATOM
      1 C          71.9522   75.4873   13.9032 C.ar    1  UNL1        0.1633
      2 N          71.4376   74.3987   13.0087 N.ar    1  UNL1       -0.2297
      3 C          71.1276   73.0453   13.5764 C.ar    1  UNL1        0.0756
      4 C          71.3321   72.7806   15.0387 C.ar    1  UNL1        0.0258
      5 C          71.8467   73.8692   15.9332 C.ar    1  UNL1        0.1306
      6 N          72.1567   75.2226   15.3654 N.ar    1  UNL1       -0.2122
      7 C          71.0221   71.4273   15.6064 C.3     1  UNL1        0.0478
      8 C          70.5075   70.3387   14.7119 C.3     1  UNL1        0.0772
      9 N          70.3030   70.6034   13.2497 N.3     1  UNL1       -0.2687
     10 C          70.6130   71.9567   12.6820 C.3     1  UNL1        0.1184
     11 N          72.0512   73.6045   17.3954 N.pl3   1  UNL1       -0.2900
     12 C          73.4280   73.3269   17.9219 C.3     1  UNL1        0.1242
     13 C          73.6326   73.0622   19.3841 C.3     1  UNL1        0.1636
     14 O          72.4603   73.0750   20.3198 O.3     1  UNL1       -0.3502
     15 C          71.0834   73.3526   19.7933 C.3     1  UNL1        0.1618
     16 C          70.8788   73.6174   18.3311 C.3     1  UNL1        0.1038
     17 C          69.5020   73.8950   17.8045 C.3     1  UNL1        0.0241
     18 C          72.8824   79.5473   12.2001 C.ar    1  UNL1        0.0516
     19 C          72.9371   78.3342   11.3196 C.ar    1  UNL1        0.0148
     20 C          72.6270   76.9809   11.8873 C.ar    1  UNL1        0.0043
     21 C          72.2623   76.8407   13.3355 C.ar    1  UNL1        0.0359
     22 C          72.2076   78.0538   14.2160 C.ar    1  UNL1        0.0043
     23 C          72.5177   79.4071   13.6483 C.ar    1  UNL1        0.0148
     24 N          72.8219   82.7149    9.8098 N.am    1  UNL1       -0.2887
     25 C          72.5119   81.3615   10.3776 C.2     1  UNL1        0.3045
     26 O          71.5213   80.4689    9.6905 O.2     1  UNL1       -0.2525
     27 N          73.1925   80.9007   11.6323 N.am    1  UNL1       -0.2683
     28 H          73.4721   83.3007   10.2608 H       1  UNL1        0.1510
     29 H          73.8426   81.4865   12.0833 H       1  UNL1        0.1564
     30 C          72.1359   82.2976    7.3390 C.3     1  UNL1        0.0230
     31 C          72.1414   83.1757    8.5550 C.3     1  UNL1        0.0910
     32 C          69.7884   69.5147   12.3552 C.3     1  UNL1        0.0579
     33 C          69.9087   68.0797   12.7748 C.3     1  UNL1        0.0173
     34 C          69.1534   69.8612   11.0411 C.3     1  UNL1        0.0173
@<TRIPOS>BOND
     1    30    31    1
     2    31    24    1
     3    24    25   am
     4    25    26    2
     5    25    27   am
     6    27    18    1
     7    18    19   ar
     8    19    20   ar
     9    20    21   ar
    10    21     1    1
    11     1     2   ar
    12     2     3   ar
    13     3     4   ar
    14     4     5   ar
    15     5    11    1
    16    11    12    1
    17    12    13    1
    18    13    14    1
    19    14    15    1
    20    15    16    1
    21    16    17    1
    22     5     6   ar
    23     4     7    1
    24     7     8    1
    25     8     9    1
    26     9    32    1
    27    32    33    1
    28    32    34    1
    29     9    10    1
    30    21    22   ar
    31    22    23   ar
    32    23    18   ar
    33     6     1   ar
    34    10     3    1
    35    16    11    1
    36    24    28    1
    37    27    29    1
@<TRIPOS>MOLECULE
*****
 34 37 0 0 0
SMALL
GASTEIGER

@<TRIPOS>ATOM
      1 C          63.3765   88.2197   12.0385 C.ar    1  UNL1        0.1633
      2 N          63.7247   87.0809   12.9504 N.ar    1  UNL1       -0.2297
      3 C          63.1867   85.7080   12.6751 C.ar    1  UNL1        0.0756
      4 C          62.3005   85.4740   11.4877 C.ar    1  UNL1        0.0258
      5 C          61.9522   86.6129   10.5757 C.ar    1  UNL1        0.1306
      6 N          62.4902   87.9857   10.8511 N.ar    1  UNL1       -0.2122
      7 C          61.7624   84.1012   11.2124 C.3     1  UNL1        0.0478
      8 C          62.1107   82.9623   12.1243 C.3     1  UNL1        0.0772
      9 N          62.9969   83.1963   13.3117 N.3     1  UNL1       -0.2687
     10 C          63.5350   84.5691   13.5871 C.3     1  UNL1        0.1184
     11 N          61.0660   86.3789    9.3884 N.pl3   1  UNL1       -0.2900
     12 C          59.6425   86.8512    9.4103 C.3     1  UNL1        0.1242
     13 C          58.7562   86.6172    8.2230 C.3     1  UNL1        0.1636
     14 O          59.2935   85.9110    7.0137 O.3     1  UNL1       -0.3502
     15 C          60.7170   85.4386    6.9917 C.3     1  UNL1        0.1618
     16 C          61.6033   85.6726    8.1790 C.3     1  UNL1        0.1038
     17 C          63.0268   85.2003    8.1571 C.3     1  UNL1        0.0241
     18 C          64.9904   92.3383   12.8644 C.ar    1  UNL1        0.0516
     19 C          64.4288   92.0100   11.5129 C.ar    1  UNL1        0.0148
     20 C          63.8908   90.6372   11.2376 C.ar    1  UNL1        0.0043
     21 C          63.9145   89.5926   12.3138 C.ar    1  UNL1        0.0359
     22 C          64.4761   89.9209   13.6654 C.ar    1  UNL1        0.0043
     23 C          65.0141   91.2938   13.9407 C.ar    1  UNL1        0.0148
     24 N          66.4845   95.9678   12.2774 N.am    1  UNL1       -0.2887
     25 C          65.9465   94.5950   12.0021 C.2     1  UNL1        0.3045
     26 O          65.8265   94.1059   10.5892 O.2     1  UNL1       -0.2525
     27 N          65.5284   93.7112   13.1398 N.am    1  UNL1       -0.2683
     28 H          66.5632   96.2888   13.2048 H       1  UNL1        0.1510
     29 H          65.6072   94.0322   14.0671 H       1  UNL1        0.1564
     30 C          67.0993   96.2699    9.7713 C.3     1  UNL1        0.0230
     31 C          66.9025   96.8516   11.1398 C.3     1  UNL1        0.0910
     32 C          63.3452   82.0574   14.2237 C.3     1  UNL1        0.0579
     33 C          64.2899   82.2750   15.3683 C.3     1  UNL1        0.0173
     34 C          62.7487   80.7009   13.9910 C.3     1  UNL1        0.0173
@<TRIPOS>BOND
     1    30    31    1
     2    31    24    1
     3    24    25   am
     4    25    26    2
     5    25    27   am
     6    27    18    1
     7    18    19   ar
     8    19    20   ar
     9    20    21   ar
    10    21     1    1
    11     1     2   ar
    12     2     3   ar
    13     3     4   ar
    14     4     5   ar
    15     5    11    1
    16    11    12    1
    17    12    13    1
    18    13    14    1
    19    14    15    1
    20    15    16    1
    21    16    17    1
    22     5     6   ar
    23     4     7    1
    24     7     8    1
    25     8     9    1
    26     9    32    1
    27    32    33    1
    28    32    34    1
    29     9    10    1
    30    21    22   ar
    31    22    23   ar
    32    23    18   ar
    33     6     1   ar
    34    10     3    1
    35    16    11    1
    36    24    28    1
    37    27    29    1
@<TRIPOS>MOLECULE
*****
 34 37 0 0 0
SMALL
GASTEIGER

@<TRIPOS>ATOM
      1 C          61.4404   87.1764    9.9785 C.ar    1  UNL1        0.1633
      2 N          61.4423   85.6764    9.9777 N.ar    1  UNL1       -0.2297
      3 C          62.1519   84.9267   11.0661 C.ar    1  UNL1        0.0756
      4 C          62.8595   85.6770   12.1553 C.ar    1  UNL1        0.0258
      5 C          62.8576   87.1771   12.1560 C.ar    1  UNL1        0.1306
      6 N          62.1480   87.9267   11.0677 N.ar    1  UNL1       -0.2122
      7 C          63.5690   84.9274   13.2436 C.3     1  UNL1        0.0478
      8 C          63.5709   83.4274   13.2428 C.3     1  UNL1        0.0772
      9 N          62.8633   82.6771   12.1537 N.3     1  UNL1       -0.2687
     10 C          62.1537   83.4267   11.0653 C.3     1  UNL1        0.1184
     11 N          63.5652   87.9274   13.2452 N.pl3   1  UNL1       -0.2900
     12 C          64.0685   87.1966   14.4545 C.3     1  UNL1        0.1242
     13 C          64.7762   87.9469   15.5437 C.3     1  UNL1        0.1636
     14 O          64.9805   89.4281   15.4235 O.3     1  UNL1       -0.3502
     15 C          64.4771   90.1589   14.2141 C.3     1  UNL1        0.1618
     16 C          63.7695   89.4086   13.1249 C.3     1  UNL1        0.1038
     17 C          63.2662   90.1394   11.9156 C.3     1  UNL1        0.0241
     18 C          59.3119   89.4256    6.7135 C.ar    1  UNL1        0.0516
     19 C          59.9647   90.1744    7.8373 C.ar    1  UNL1        0.0148
     20 C          60.6742   89.4246    8.9256 C.ar    1  UNL1        0.0043
     21 C          60.7309   87.9261    8.8901 C.ar    1  UNL1        0.0359
     22 C          60.0780   87.1773    7.7663 C.ar    1  UNL1        0.0043
     23 C          59.3685   87.9271    6.6780 C.ar    1  UNL1        0.0148
     24 N          58.6462   91.9051    3.6871 N.am    1  UNL1       -0.2887
     25 C          59.3557   91.1554    4.7754 C.2     1  UNL1        0.3045
     26 O          60.8186   91.3857    5.0142 O.2     1  UNL1       -0.2525
     27 N          58.6023   90.1753    5.6251 N.am    1  UNL1       -0.2683
     28 H          57.6861   91.7539    3.5304 H       1  UNL1        0.1510
     29 H          57.6422   90.0241    5.4684 H       1  UNL1        0.1564
     30 C          59.2954   92.8172    1.3427 C.3     1  UNL1        0.0230
     31 C          59.3996   92.8852    2.8375 C.3     1  UNL1        0.0910
     32 C          62.8652   81.1770   12.1529 C.3     1  UNL1        0.0579
     33 C          63.0237   80.4279   10.8631 C.3     1  UNL1        0.0173
     34 C          62.7085   80.4262   13.4420 C.3     1  UNL1        0.0173
@<TRIPOS>BOND
     1    30    31    1
     2    31    24    1
     3    24    25   am
     4    25    26    2
     5    25    27   am
     6    27    18    1
     7    18    19   ar
     8    19    20   ar
     9    20    21   ar
    10    21     1    1
    11     1     2   ar
    12     2     3   ar
    13     3     4   ar
    14     4     5   ar
    15     5    11    1
    16    11    12    1
    17    12    13    1
    18    13    14    1
    19    14    15    1
    20    15    16    1
    21    16    17    1
    22     5     6   ar
    23     4     7    1
    24     7     8    1
    25     8     9    1
    26     9    32    1
    27    32    33    1
    28    32    34    1
    29     9    10    1
    30    21    22   ar
    31    22    23   ar
    32    23    18   ar
    33     6     1   ar
    34    10     3    1
    35    16    11    1
    36    24    28    1
    37    27    29    1
@<TRIPOS>MOLECULE
*****
 34 37 0 0 0
SMALL
GASTEIGER

@<TRIPOS>ATOM
      1 C          61.9730   88.2257   11.1177 C.ar    1  UNL1        0.1633
      2 N          62.1963   86.7678   11.3908 N.ar    1  UNL1       -0.2297
      3 C          63.0309   86.3435   12.5629 C.ar    1  UNL1        0.0756
      4 C          63.6421   87.3772   13.4617 C.ar    1  UNL1        0.0258
      5 C          63.4188   88.8352   13.1885 C.ar    1  UNL1        0.1306
      6 N          62.5842   89.2594   12.0165 N.ar    1  UNL1       -0.2122
      7 C          64.4766   86.9531   14.6337 C.3     1  UNL1        0.0478
      8 C          64.6999   85.4952   14.9069 C.3     1  UNL1        0.0772
      9 N          64.0887   84.4615   14.0081 N.3     1  UNL1       -0.2687
     10 C          63.2542   84.8857   12.8361 C.3     1  UNL1        0.1184
     11 N          64.0300   89.8689   14.0873 N.pl3   1  UNL1       -0.2900
     12 C          65.2110   90.6662   13.6189 C.3     1  UNL1        0.1242
     13 C          65.8222   91.6999   14.5177 C.3     1  UNL1        0.1636
     14 O          65.2524   91.9363   15.8849 O.3     1  UNL1       -0.3502
     15 C          64.0713   91.1390   16.3534 C.3     1  UNL1        0.1618
     16 C          63.4601   90.1053   15.4546 C.3     1  UNL1        0.1038
     17 C          62.2791   89.3080   15.9230 C.3     1  UNL1        0.0241
     18 C          59.4694   89.4982    7.6016 C.ar    1  UNL1        0.0516
     19 C          60.0059   88.0993    7.6732 C.ar    1  UNL1        0.0148
     20 C          60.8404   87.6751    8.8452 C.ar    1  UNL1        0.0043
     21 C          61.1385   88.6499    9.9456 C.ar    1  UNL1        0.0359
     22 C          60.6020   90.0488    9.8741 C.ar    1  UNL1        0.0043
     23 C          59.7675   90.4730    8.7021 C.ar    1  UNL1        0.0148
     24 N          58.4045   91.1868    4.1717 N.am    1  UNL1       -0.2887
     25 C          59.2390   90.7626    5.3437 C.2     1  UNL1        0.3045
     26 O          60.6777   91.1785    5.4298 O.2     1  UNL1       -0.2525
     27 N          58.6349   89.9225    6.4296 N.am    1  UNL1       -0.2683
     28 H          57.4603   90.9139    4.1152 H       1  UNL1        0.1510
     29 H          57.6907   89.6495    6.3731 H       1  UNL1        0.1564
     30 C          59.8206   93.2378    3.4383 C.3     1  UNL1        0.0230
     31 C          59.0086   92.0269    3.0857 C.3     1  UNL1        0.0910
     32 C          64.3121   83.0035   14.2813 C.3     1  UNL1        0.0579
     33 C          64.3138   82.0199   13.1488 C.3     1  UNL1        0.0173
     34 C          64.5337   82.5293   15.6870 C.3     1  UNL1        0.0173
@<TRIPOS>BOND
     1    30    31    1
     2    31    24    1
     3    24    25   am
     4    25    26    2
     5    25    27   am
     6    27    18    1
     7    18    19   ar
     8    19    20   ar
     9    20    21   ar
    10    21     1    1
    11     1     2   ar
    12     2     3   ar
    13     3     4   ar
    14     4     5   ar
    15     5    11    1
    16    11    12    1
    17    12    13    1
    18    13    14    1
    19    14    15    1
    20    15    16    1
    21    16    17    1
    22     5     6   ar
    23     4     7    1
    24     7     8    1
    25     8     9    1
    26     9    32    1
    27    32    33    1
    28    32    34    1
    29     9    10    1
    30    21    22   ar
    31    22    23   ar
    32    23    18   ar
    33     6     1   ar
    34    10     3    1
    35    16    11    1
    36    24    28    1
    37    27    29    1
