@<TRIPOS>MOLECULE
*****
 45 49 0 0 0
SMALL
GASTEIGER

@<TRIPOS>ATOM
      1 N          61.1327   87.3383    9.0978 N.am    1  UNL1       -0.2541
      2 C          60.1147   87.2214    8.0025 C.2     1  UNL1        0.2456
      3 O          59.8273   85.8848    7.3851 O.2     1  UNL1       -0.2730
      4 C          59.3840   88.4411    7.5244 C.3     1  UNL1        0.1555
      5 N          59.6714   89.7776    8.1417 N.3     1  UNL1       -0.2883
      6 C          60.6894   89.8944    9.2371 C.3     1  UNL1        0.0932
      7 C          61.4201   88.6748    9.7151 C.3     1  UNL1        0.1390
      8 H          58.7896   90.1223    8.5212 H       1  UNL1        0.1237
      9 C          63.3248   83.6793   10.5321 C.ar    1  UNL1        0.1386
     10 C          63.5626   84.2009    9.1460 C.ar    1  UNL1        0.0382
     11 C          62.8319   85.4205    8.6679 C.ar    1  UNL1        0.0180
     12 C          61.8634   86.1186    9.5759 C.ar    1  UNL1        0.0542
     13 C          61.6256   85.5970   10.9620 C.ar    1  UNL1        0.0180
     14 C          62.3562   84.3774   11.4401 C.ar    1  UNL1        0.0382
     15 O          64.0554   82.4596   11.0101 O.3     1  UNL1       -0.4754
     16 C          63.3343   81.1492   11.1223 C.3     1  UNL1        0.2080
     17 C          63.0331   80.5721   12.4737 C.3     1  UNL1        0.0794
     18 C          61.9208   81.1436   13.3022 C.3     1  UNL1        0.1465
     19 O          62.1769   81.5508   14.7230 O.3     1  UNL1       -0.3488
     20 C          62.0233   82.9860   15.1311 C.3     1  UNL1        0.1716
     21 C          63.1921   85.2059   15.8065 C.ar    1  UNL1        0.1370
     22 C          64.3579   86.1440   15.7027 C.ar    1  UNL1        0.0367
     23 C          65.5207   85.8005   14.8196 C.ar    1  UNL1        0.0031
     24 C          65.5177   84.5188   14.0404 C.ar    1  UNL1       -0.0000
     25 C          64.3519   83.5806   14.1442 C.ar    1  UNL1        0.0012
     26 C          63.1891   83.9242   15.0272 C.ar    1  UNL1        0.0413
     27 C          62.1901   86.5678   17.7790 C.3     1  UNL1        0.2525
     28 O          62.0293   85.5495   16.6896 O.3     1  UNL1       -0.4717
     29 C          62.4382   88.7917   10.8106 C.3     1  UNL1        0.2267
     30 O          62.0519   89.3839   12.1334 O.3     1  UNL1       -0.4736
     31 C          63.0808   90.0838   12.9710 C.ar    1  UNL1        0.1398
     32 C          63.2526   89.7118   14.4139 C.ar    1  UNL1        0.0367
     33 C          64.2815   90.4117   15.2515 C.ar    1  UNL1        0.0001
     34 C          65.1386   91.4836   14.6461 C.ar    1  UNL1       -0.0086
     35 C          64.9668   91.8556   13.2032 C.ar    1  UNL1        0.0468
     36 C          63.9379   91.1557   12.3657 C.ar    1  UNL1        0.0511
     37 N          65.8239   92.9274   12.5978 N.pl3   1  UNL1       -0.3073
     38 C          66.8528   93.6273   13.4353 C.3     1  UNL1        0.0911
     39 C          67.0246   93.2553   14.8783 C.3     1  UNL1        0.0261
     40 C          66.1676   92.1834   15.4837 C.3     1  UNL1        0.0294
     41 C          65.6521   93.2994   11.1549 C.3     1  UNL1        0.0967
     42 C          66.2568   94.5679   10.6302 C.3     1  UNL1        0.0631
     43 C          67.2455   94.5174    9.5033 C.2     1  UNL1        0.0521
     44 O          66.8564   95.0113    8.1415 O.co2   1  UNL1       -0.5491
     45 O          68.6233   93.9728    9.7383 O.co2   1  UNL1       -0.5491
@<TRIPOS>UNITY_ATOM_ATTR
44 1
charge -1
@<TRIPOS>BOND
     1    27    28    1
     2    28    21    1
     3    21    22   ar
     4    22    23   ar
     5    23    24   ar
     6    24    25   ar
     7    25    26   ar
     8    26    20    1
     9    20    19    1
    10    19    18    1
    11    18    17    1
    12    17    16    1
    13    16    15    1
    14    15     9    1
    15     9    10   ar
    16    10    11   ar
    17    11    12   ar
    18    12     1    1
    19     1     2   am
    20     2     3    2
    21     2     4    1
    22     4     5    1
    23     5     6    1
    24     6     7    1
    25     7    29    1
    26    29    30    1
    27    30    31    1
    28    31    32   ar
    29    32    33   ar
    30    33    34   ar
    31    34    35   ar
    32    35    36   ar
    33    35    37    1
    34    37    41    1
    35    41    42    1
    36    42    43    1
    37    43    44   ar
    38    43    45   ar
    39    37    38    1
    40    38    39    1
    41    39    40    1
    42    12    13   ar
    43    13    14   ar
    44    26    21   ar
    45    14     9   ar
    46     7     1    1
    47    36    31   ar
    48    40    34    1
    49     5     8    1
@<TRIPOS>MOLECULE
*****
 45 49 0 0 0
SMALL
GASTEIGER

@<TRIPOS>ATOM
      1 N          61.1184   87.2643    9.0899 N.am    1  UNL1       -0.2541
      2 C          60.0996   87.0971    8.0018 C.2     1  UNL1        0.2456
      3 O          59.8400   85.7392    7.4196 O.2     1  UNL1       -0.2730
      4 C          59.3404   88.2877    7.4958 C.3     1  UNL1        0.1555
      5 N          59.5999   89.6455    8.0779 N.3     1  UNL1       -0.2883
      6 C          60.6187   89.8128    9.1660 C.3     1  UNL1        0.0932
      7 C          61.3779   88.6222    9.6721 C.3     1  UNL1        0.1390
      8 H          58.7120   89.9802    8.4520 H       1  UNL1        0.1237
      9 C          63.3961   83.6925   10.6080 C.ar    1  UNL1        0.1386
     10 C          63.6492   84.2103    9.2232 C.ar    1  UNL1        0.0382
     11 C          62.8900   85.4009    8.7171 C.ar    1  UNL1        0.0180
     12 C          61.8776   86.0737    9.5960 C.ar    1  UNL1        0.0542
     13 C          61.6245   85.5560   10.9808 C.ar    1  UNL1        0.0180
     14 C          62.3837   84.3654   11.4868 C.ar    1  UNL1        0.0382
     15 O          64.1553   82.5020   11.1140 O.3     1  UNL1       -0.4754
     16 C          63.4169   81.3355   11.7006 C.3     1  UNL1        0.2080
     17 C          63.6451   80.9460   13.1311 C.3     1  UNL1        0.0794
     18 C          62.6221   81.2874   14.1737 C.3     1  UNL1        0.1465
     19 O          62.8797   82.4061   15.1391 O.3     1  UNL1       -0.3488
     20 C          62.0169   83.6329   15.1129 C.3     1  UNL1        0.1716
     21 C          63.6512   85.6523   15.0823 C.ar    1  UNL1        0.1370
     22 C          64.1474   86.9312   15.6891 C.ar    1  UNL1        0.0367
     23 C          63.5055   87.4697   16.9332 C.ar    1  UNL1        0.0031
     24 C          62.3674   86.7291   17.5706 C.ar    1  UNL1       -0.0000
     25 C          61.8712   85.4502   16.9639 C.ar    1  UNL1        0.0012
     26 C          62.5131   84.9118   15.7197 C.ar    1  UNL1        0.0413
     27 C          65.4877   84.2125   13.9403 C.3     1  UNL1        0.2525
     28 O          64.2932   85.1139   13.8381 O.3     1  UNL1       -0.4717
     29 C          62.3968   88.7894   10.7603 C.3     1  UNL1        0.2267
     30 O          61.9983   89.3927   12.0745 O.3     1  UNL1       -0.4736
     31 C          63.0114   90.1297   12.8994 C.ar    1  UNL1        0.1398
     32 C          63.0322   89.9597   14.3896 C.ar    1  UNL1        0.0367
     33 C          64.0453   90.6967   15.2144 C.ar    1  UNL1        0.0001
     34 C          65.0376   91.6037   14.5491 C.ar    1  UNL1       -0.0086
     35 C          65.0169   91.7737   13.0590 C.ar    1  UNL1        0.0468
     36 C          64.0038   91.0367   12.2341 C.ar    1  UNL1        0.0511
     37 N          66.0092   92.6807   12.3937 N.pl3   1  UNL1       -0.3073
     38 C          67.0223   93.4176   13.2186 C.3     1  UNL1        0.0911
     39 C          67.0431   93.2476   14.7088 C.3     1  UNL1        0.0261
     40 C          66.0508   92.3406   15.3741 C.3     1  UNL1        0.0294
     41 C          65.9885   92.8507   10.9035 C.3     1  UNL1        0.0967
     42 C          66.2315   94.2019   10.2994 C.3     1  UNL1        0.0631
     43 C          67.4013   94.4153    9.3849 C.2     1  UNL1        0.0521
     44 O          67.2391   95.2329    8.1379 O.co2   1  UNL1       -0.5491
     45 O          68.7332   93.8109    9.7176 O.co2   1  UNL1       -0.5491
@<TRIPOS>UNITY_ATOM_ATTR
44 1
charge -1
@<TRIPOS>BOND
     1    27    28    1
     2    28    21    1
     3    21    22   ar
     4    22    23   ar
     5    23    24   ar
     6    24    25   ar
     7    25    26   ar
     8    26    20    1
     9    20    19    1
    10    19    18    1
    11    18    17    1
    12    17    16    1
    13    16    15    1
    14    15     9    1
    15     9    10   ar
    16    10    11   ar
    17    11    12   ar
    18    12     1    1
    19     1     2   am
    20     2     3    2
    21     2     4    1
    22     4     5    1
    23     5     6    1
    24     6     7    1
    25     7    29    1
    26    29    30    1
    27    30    31    1
    28    31    32   ar
    29    32    33   ar
    30    33    34   ar
    31    34    35   ar
    32    35    36   ar
    33    35    37    1
    34    37    41    1
    35    41    42    1
    36    42    43    1
    37    43    44   ar
    38    43    45   ar
    39    37    38    1
    40    38    39    1
    41    39    40    1
    42    12    13   ar
    43    13    14   ar
    44    26    21   ar
    45    14     9   ar
    46     7     1    1
    47    36    31   ar
    48    40    34    1
    49     5     8    1
@<TRIPOS>MOLECULE
*****
 45 49 0 0 0
SMALL
GASTEIGER

@<TRIPOS>ATOM
      1 N          63.6917   90.3440   12.4203 N.am    1  UNL1       -0.2541
      2 C          64.3565   91.6094   11.9658 C.2     1  UNL1        0.2456
      3 O          63.9253   92.2660   10.6879 O.2     1  UNL1       -0.2730
      4 C          65.4524   92.2184   12.7893 C.3     1  UNL1        0.1555
      5 N          65.8836   91.5619   14.0672 N.3     1  UNL1       -0.2883
      6 C          65.2188   90.2965   14.5216 C.3     1  UNL1        0.0932
      7 C          64.1228   89.6875   13.6982 C.3     1  UNL1        0.1390
      8 H          65.7502   92.2479   14.8102 H       1  UNL1        0.1237
      9 C          60.4038   88.5170    9.9501 C.ar    1  UNL1        0.1386
     10 C          60.0689   89.4833   11.0474 C.ar    1  UNL1        0.0382
     11 C          61.1649   90.0923   11.8708 C.ar    1  UNL1        0.0180
     12 C          62.5957   89.7350   11.5969 C.ar    1  UNL1        0.0542
     13 C          62.9306   88.7687   10.4996 C.ar    1  UNL1        0.0180
     14 C          61.8346   88.1597    9.6762 C.ar    1  UNL1        0.0382
     15 O          59.3078   87.9081    9.1267 O.3     1  UNL1       -0.4754
     16 C          59.2619   88.1451    7.6462 C.3     1  UNL1        0.2080
     17 C          59.6895   89.4688    7.0850 C.3     1  UNL1        0.0794
     18 C          58.9931   90.0337    5.8824 C.3     1  UNL1        0.1465
     19 O          59.0182   91.5115    5.6266 O.3     1  UNL1       -0.3488
     20 C          59.1613   92.0278    4.2256 C.3     1  UNL1        0.1716
     21 C          60.7667   93.0870    2.4789 C.ar    1  UNL1        0.1370
     22 C          62.1240   93.1727    1.8461 C.ar    1  UNL1        0.0367
     23 C          63.2332   92.2849    2.3272 C.ar    1  UNL1        0.0031
     24 C          62.9851   91.3114    3.4411 C.ar    1  UNL1       -0.0000
     25 C          61.6278   91.2257    4.0739 C.ar    1  UNL1        0.0012
     26 C          60.5186   92.1135    3.5928 C.ar    1  UNL1        0.0413
     27 C          59.3031   94.0096    0.5407 C.3     1  UNL1        0.2525
     28 O          59.6574   93.9748    1.9978 O.3     1  UNL1       -0.4717
     29 C          63.4580   88.4220   14.1528 C.3     1  UNL1        0.2267
     30 O          64.2897   87.2590   14.6064 O.3     1  UNL1       -0.4736
     31 C          63.7181   85.8724   14.5797 C.ar    1  UNL1        0.1398
     32 C          62.8803   85.3844   15.7242 C.ar    1  UNL1        0.0367
     33 C          62.3087   83.9979   15.6975 C.ar    1  UNL1        0.0001
     34 C          62.5749   83.0993   14.5263 C.ar    1  UNL1       -0.0086
     35 C          63.4127   83.5873   13.3818 C.ar    1  UNL1        0.0468
     36 C          63.9843   84.9739   13.4085 C.ar    1  UNL1        0.0511
     37 N          63.6789   82.6888   12.2105 N.pl3   1  UNL1       -0.3073
     38 C          63.1073   81.3022   12.1838 C.3     1  UNL1        0.0911
     39 C          62.2694   80.8142   13.3284 C.3     1  UNL1        0.0261
     40 C          62.0032   81.7127   14.4996 C.3     1  UNL1        0.0294
     41 C          64.5166   83.1768   11.0660 C.3     1  UNL1        0.0967
     42 C          63.8916   83.4004    9.7209 C.3     1  UNL1        0.0631
     43 C          63.0786   84.6353    9.4676 C.2     1  UNL1        0.0521
     44 O          62.1633   85.1622   10.5328 O.co2   1  UNL1       -0.5491
     45 O          63.1810   85.3433    8.1492 O.co2   1  UNL1       -0.5491
@<TRIPOS>UNITY_ATOM_ATTR
44 1
charge -1
@<TRIPOS>BOND
     1    27    28    1
     2    28    21    1
     3    21    22   ar
     4    22    23   ar
     5    23    24   ar
     6    24    25   ar
     7    25    26   ar
     8    26    20    1
     9    20    19    1
    10    19    18    1
    11    18    17    1
    12    17    16    1
    13    16    15    1
    14    15     9    1
    15     9    10   ar
    16    10    11   ar
    17    11    12   ar
    18    12     1    1
    19     1     2   am
    20     2     3    2
    21     2     4    1
    22     4     5    1
    23     5     6    1
    24     6     7    1
    25     7    29    1
    26    29    30    1
    27    30    31    1
    28    31    32   ar
    29    32    33   ar
    30    33    34   ar
    31    34    35   ar
    32    35    36   ar
    33    35    37    1
    34    37    41    1
    35    41    42    1
    36    42    43    1
    37    43    44   ar
    38    43    45   ar
    39    37    38    1
    40    38    39    1
    41    39    40    1
    42    12    13   ar
    43    13    14   ar
    44    26    21   ar
    45    14     9   ar
    46     7     1    1
    47    36    31   ar
    48    40    34    1
    49     5     8    1
@<TRIPOS>MOLECULE
*****
 45 49 0 0 0
SMALL
GASTEIGER

@<TRIPOS>ATOM
      1 N          63.1793   82.1891   12.8160 N.am    1  UNL1       -0.2541
      2 C          62.7625   80.7991   13.1953 C.2     1  UNL1        0.2456
      3 O          62.4765   80.4669   14.6299 O.2     1  UNL1       -0.2730
      4 C          62.6315   79.7411   12.1401 C.3     1  UNL1        0.1555
      5 N          62.9174   80.0731   10.7055 N.3     1  UNL1       -0.2883
      6 C          63.3342   81.4632   10.3262 C.3     1  UNL1        0.0932
      7 C          63.4652   82.5212   11.3814 C.3     1  UNL1        0.1390
      8 H          62.0675   79.8670   10.1805 H       1  UNL1        0.1237
      9 C          63.5720   85.3631   15.9816 C.ar    1  UNL1        0.1386
     10 C          62.2912   84.5945   15.8450 C.ar    1  UNL1        0.0382
     11 C          62.1603   83.5365   14.7898 C.ar    1  UNL1        0.0180
     12 C          63.3102   83.2471   13.8712 C.ar    1  UNL1        0.0542
     13 C          64.5910   84.0157   14.0077 C.ar    1  UNL1        0.0180
     14 C          64.7219   85.0737   15.0630 C.ar    1  UNL1        0.0382
     15 O          63.7030   86.4212   17.0368 O.3     1  UNL1       -0.4754
     16 C          62.7020   87.5359   17.1095 C.3     1  UNL1        0.2080
     17 C          63.1241   88.9437   16.8100 C.3     1  UNL1        0.0794
     18 C          63.5286   89.3252   15.4168 C.3     1  UNL1        0.1465
     19 O          63.5920   90.7713   15.0236 O.3     1  UNL1       -0.3488
     20 C          64.9180   91.4165   14.7492 C.3     1  UNL1        0.1716
     21 C          66.1329   93.2091   13.3137 C.ar    1  UNL1        0.1370
     22 C          66.3949   93.8480   11.9821 C.ar    1  UNL1        0.0367
     23 C          65.7041   93.3330   10.7543 C.ar    1  UNL1        0.0031
     24 C          64.7513   92.1792   10.8582 C.ar    1  UNL1       -0.0000
     25 C          64.4893   91.5403   12.1898 C.ar    1  UNL1        0.0012
     26 C          65.1801   92.0553   13.4176 C.ar    1  UNL1        0.0413
     27 C          68.1090   93.0991   14.9969 C.3     1  UNL1        0.2525
     28 O          66.8237   93.7242   14.5416 O.3     1  UNL1       -0.4717
     29 C          63.8820   83.9113   11.0020 C.3     1  UNL1        0.2267
     30 O          63.9639   84.3014    9.5560 O.3     1  UNL1       -0.4736
     31 C          62.8528   85.0895    8.9277 C.ar    1  UNL1        0.1398
     32 C          62.1004   84.5248    7.7594 C.ar    1  UNL1        0.0367
     33 C          60.9894   85.3128    7.1312 C.ar    1  UNL1        0.0001
     34 C          60.6309   86.6655    7.6713 C.ar    1  UNL1       -0.0086
     35 C          61.3833   87.2302    8.8396 C.ar    1  UNL1        0.0468
     36 C          62.4943   86.4422    9.4678 C.ar    1  UNL1        0.0511
     37 N          61.0248   88.5829    9.3796 N.pl3   1  UNL1       -0.3073
     38 C          59.9139   89.3709    8.7514 C.3     1  UNL1        0.0911
     39 C          59.1613   88.8063    7.5831 C.3     1  UNL1        0.0261
     40 C          59.5198   87.4536    7.0430 C.3     1  UNL1        0.0294
     41 C          61.7773   89.1476   10.5479 C.3     1  UNL1        0.0967
     42 C          61.1448   90.1999   11.4096 C.3     1  UNL1        0.0631
     43 C          59.7095   90.0664   11.8246 C.2     1  UNL1        0.0521
     44 O          59.2313   88.8022   12.4750 O.co2   1  UNL1       -0.5491
     45 O          58.7524   91.1972   11.5892 O.co2   1  UNL1       -0.5491
@<TRIPOS>UNITY_ATOM_ATTR
44 1
charge -1
@<TRIPOS>BOND
     1    27    28    1
     2    28    21    1
     3    21    22   ar
     4    22    23   ar
     5    23    24   ar
     6    24    25   ar
     7    25    26   ar
     8    26    20    1
     9    20    19    1
    10    19    18    1
    11    18    17    1
    12    17    16    1
    13    16    15    1
    14    15     9    1
    15     9    10   ar
    16    10    11   ar
    17    11    12   ar
    18    12     1    1
    19     1     2   am
    20     2     3    2
    21     2     4    1
    22     4     5    1
    23     5     6    1
    24     6     7    1
    25     7    29    1
    26    29    30    1
    27    30    31    1
    28    31    32   ar
    29    32    33   ar
    30    33    34   ar
    31    34    35   ar
    32    35    36   ar
    33    35    37    1
    34    37    41    1
    35    41    42    1
    36    42    43    1
    37    43    44   ar
    38    43    45   ar
    39    37    38    1
    40    38    39    1
    41    39    40    1
    42    12    13   ar
    43    13    14   ar
    44    26    21   ar
    45    14     9   ar
    46     7     1    1
    47    36    31   ar
    48    40    34    1
    49     5     8    1
@<TRIPOS>MOLECULE
*****
 45 49 0 0 0
SMALL
GASTEIGER

@<TRIPOS>ATOM
      1 N          62.8106   86.0370   12.1834 N.am    1  UNL1       -0.2541
      2 C          63.0015   84.6179   12.6303 C.2     1  UNL1        0.2456
      3 O          62.3853   83.4959   11.8483 O.2     1  UNL1       -0.2730
      4 C          63.8086   84.3208   13.8593 C.3     1  UNL1        0.1555
      5 N          64.4247   85.4427   14.6413 N.3     1  UNL1       -0.2883
      6 C          64.2338   86.8618   14.1943 C.3     1  UNL1        0.0932
      7 C          63.4267   87.1589   12.9654 C.3     1  UNL1        0.1390
      8 H          65.4302   85.2722   14.6585 H       1  UNL1        0.1237
      9 C          60.3893   86.9283    8.4965 C.ar    1  UNL1        0.1386
     10 C          61.6119   86.0647    8.4002 C.ar    1  UNL1        0.0382
     11 C          62.4190   85.7675    9.6291 C.ar    1  UNL1        0.0180
     12 C          62.0035   86.3341   10.9544 C.ar    1  UNL1        0.0542
     13 C          60.7809   87.1978   11.0507 C.ar    1  UNL1        0.0180
     14 C          59.9738   87.4949    9.8217 C.ar    1  UNL1        0.0382
     15 O          59.5823   87.2255    7.2675 O.3     1  UNL1       -0.4754
     16 C          58.8740   88.5410    7.1353 C.3     1  UNL1        0.2080
     17 C          59.4896   89.6467    6.3301 C.3     1  UNL1        0.0794
     18 C          58.6138   90.5991    5.5710 C.3     1  UNL1        0.1465
     19 O          59.1099   91.9766    5.2450 O.3     1  UNL1       -0.3488
     20 C          59.2954   92.3879    3.8145 C.3     1  UNL1        0.1716
     21 C          60.9879   93.3873    2.1154 C.ar    1  UNL1        0.1370
     22 C          62.3625   93.4171    1.5159 C.ar    1  UNL1        0.0367
     23 C          63.4194   92.4775    2.0159 C.ar    1  UNL1        0.0031
     24 C          63.1016   91.5080    3.1154 C.ar    1  UNL1       -0.0000
     25 C          61.7270   91.4781    3.7149 C.ar    1  UNL1        0.0012
     26 C          60.6701   92.4178    3.2149 C.ar    1  UNL1        0.0413
     27 C          59.2968   94.0979    0.2754 C.3     1  UNL1        0.2525
     28 O          59.9310   94.3270    1.6153 O.3     1  UNL1       -0.4717
     29 C          63.2358   88.5780   12.5184 C.3     1  UNL1        0.2267
     30 O          62.7807   89.6183   13.4986 O.3     1  UNL1       -0.4736
     31 C          63.7907   90.4445   14.2385 C.ar    1  UNL1        0.1398
     32 C          63.5574   90.8040   15.6759 C.ar    1  UNL1        0.0367
     33 C          64.5673   91.6301   16.4158 C.ar    1  UNL1        0.0001
     34 C          65.8106   92.0968   15.7182 C.ar    1  UNL1       -0.0086
     35 C          66.0438   91.7373   14.2808 C.ar    1  UNL1        0.0468
     36 C          65.0339   90.9111   13.5409 C.ar    1  UNL1        0.0511
     37 N          67.2871   92.2040   13.5832 N.pl3   1  UNL1       -0.3073
     38 C          68.2970   93.0301   14.3230 C.3     1  UNL1        0.0911
     39 C          68.0637   93.3897   15.7606 C.3     1  UNL1        0.0261
     40 C          66.8205   92.9230   16.4581 C.3     1  UNL1        0.0294
     41 C          67.5204   91.8445   12.1457 C.3     1  UNL1        0.0967
     42 C          66.8078   92.5948   11.0598 C.3     1  UNL1        0.0631
     43 C          66.9298   94.0875   10.9752 C.2     1  UNL1        0.0521
     44 O          67.7753   94.7114    9.9048 O.co2   1  UNL1       -0.5491
     45 O          66.2061   94.9562   11.9609 O.co2   1  UNL1       -0.5491
@<TRIPOS>UNITY_ATOM_ATTR
44 1
charge -1
@<TRIPOS>BOND
     1    27    28    1
     2    28    21    1
     3    21    22   ar
     4    22    23   ar
     5    23    24   ar
     6    24    25   ar
     7    25    26   ar
     8    26    20    1
     9    20    19    1
    10    19    18    1
    11    18    17    1
    12    17    16    1
    13    16    15    1
    14    15     9    1
    15     9    10   ar
    16    10    11   ar
    17    11    12   ar
    18    12     1    1
    19     1     2   am
    20     2     3    2
    21     2     4    1
    22     4     5    1
    23     5     6    1
    24     6     7    1
    25     7    29    1
    26    29    30    1
    27    30    31    1
    28    31    32   ar
    29    32    33   ar
    30    33    34   ar
    31    34    35   ar
    32    35    36   ar
    33    35    37    1
    34    37    41    1
    35    41    42    1
    36    42    43    1
    37    43    44   ar
    38    43    45   ar
    39    37    38    1
    40    38    39    1
    41    39    40    1
    42    12    13   ar
    43    13    14   ar
    44    26    21   ar
    45    14     9   ar
    46     7     1    1
    47    36    31   ar
    48    40    34    1
    49     5     8    1
@<TRIPOS>MOLECULE
*****
 45 49 0 0 0
SMALL
GASTEIGER

@<TRIPOS>ATOM
      1 N          61.0416   86.6942    9.1555 N.am    1  UNL1       -0.2541
      2 C          60.3659   86.4737    7.8346 C.2     1  UNL1        0.2456
      3 O          60.5409   85.1715    7.1107 O.2     1  UNL1       -0.2730
      4 C          59.5153   87.5553    7.2375 C.3     1  UNL1        0.1555
      5 N          59.3404   88.8574    7.9612 N.3     1  UNL1       -0.2883
      6 C          60.0161   89.0779    9.2821 C.3     1  UNL1        0.0932
      7 C          60.8667   87.9963    9.8792 C.3     1  UNL1        0.1390
      8 H          58.3395   88.9742    8.1194 H       1  UNL1        0.1237
      9 C          63.5936   83.4494   10.9468 C.ar    1  UNL1        0.1386
     10 C          63.8146   83.8795    9.5269 C.ar    1  UNL1        0.0382
     11 C          62.9640   84.9611    8.9298 C.ar    1  UNL1        0.0180
     12 C          61.8923   85.6126    9.7526 C.ar    1  UNL1        0.0542
     13 C          61.6713   85.1825   11.1725 C.ar    1  UNL1        0.0180
     14 C          62.5219   84.1009   11.7696 C.ar    1  UNL1        0.0382
     15 O          64.4442   82.3678   11.5439 O.3     1  UNL1       -0.4754
     16 C          63.8171   81.3057   12.3974 C.3     1  UNL1        0.2080
     17 C          63.6656   81.5225   13.8739 C.3     1  UNL1        0.0794
     18 C          62.3452   81.9591   14.4362 C.3     1  UNL1        0.1465
     19 O          62.1609   83.3711   14.9078 O.3     1  UNL1       -0.3488
     20 C          63.0656   83.9332   15.9638 C.3     1  UNL1        0.1716
     21 C          63.9347   86.2273   15.1084 C.ar    1  UNL1        0.1370
     22 C          64.0610   87.7127   15.2747 C.ar    1  UNL1        0.0367
     23 C          63.4444   88.3894   16.4629 C.ar    1  UNL1        0.0031
     24 C          62.7016   87.5807   17.4848 C.ar    1  UNL1       -0.0000
     25 C          62.5754   86.0953   17.3184 C.ar    1  UNL1        0.0012
     26 C          63.1919   85.4186   16.1302 C.ar    1  UNL1        0.0413
     27 C          65.6757   84.5765   14.1115 C.3     1  UNL1        0.2525
     28 O          64.5513   85.5506   13.9200 O.3     1  UNL1       -0.4717
     29 C          61.5424   88.2168   11.2002 C.3     1  UNL1        0.2267
     30 O          61.5724   89.5880   11.8076 O.3     1  UNL1       -0.4736
     31 C          62.6748   90.5415   11.4529 C.ar    1  UNL1        0.1398
     32 C          62.6431   91.2708   10.1426 C.ar    1  UNL1        0.0367
     33 C          63.7454   92.2242    9.7880 C.ar    1  UNL1        0.0001
     34 C          64.8796   92.4483   10.7438 C.ar    1  UNL1       -0.0086
     35 C          64.9114   91.7190   12.0541 C.ar    1  UNL1        0.0468
     36 C          63.8090   90.7656   12.4087 C.ar    1  UNL1        0.0511
     37 N          66.0455   91.9431   13.0099 N.pl3   1  UNL1       -0.3073
     38 C          67.1479   92.8965   12.6553 C.3     1  UNL1        0.0911
     39 C          67.1161   93.6258   11.3449 C.3     1  UNL1        0.0261
     40 C          65.9820   93.4017   10.3891 C.3     1  UNL1        0.0294
     41 C          66.0773   91.2137   14.3202 C.3     1  UNL1        0.0967
     42 C          67.1297   91.5437   15.3369 C.3     1  UNL1        0.0631
     43 C          66.9680   92.7447   16.2210 C.2     1  UNL1        0.0521
     44 O          65.7374   92.8941   17.0656 O.co2   1  UNL1       -0.5491
     45 O          68.0369   93.7963   16.2604 O.co2   1  UNL1       -0.5491
@<TRIPOS>UNITY_ATOM_ATTR
44 1
charge -1
@<TRIPOS>BOND
     1    27    28    1
     2    28    21    1
     3    21    22   ar
     4    22    23   ar
     5    23    24   ar
     6    24    25   ar
     7    25    26   ar
     8    26    20    1
     9    20    19    1
    10    19    18    1
    11    18    17    1
    12    17    16    1
    13    16    15    1
    14    15     9    1
    15     9    10   ar
    16    10    11   ar
    17    11    12   ar
    18    12     1    1
    19     1     2   am
    20     2     3    2
    21     2     4    1
    22     4     5    1
    23     5     6    1
    24     6     7    1
    25     7    29    1
    26    29    30    1
    27    30    31    1
    28    31    32   ar
    29    32    33   ar
    30    33    34   ar
    31    34    35   ar
    32    35    36   ar
    33    35    37    1
    34    37    41    1
    35    41    42    1
    36    42    43    1
    37    43    44   ar
    38    43    45   ar
    39    37    38    1
    40    38    39    1
    41    39    40    1
    42    12    13   ar
    43    13    14   ar
    44    26    21   ar
    45    14     9   ar
    46     7     1    1
    47    36    31   ar
    48    40    34    1
    49     5     8    1
@<TRIPOS>MOLECULE
*****
 45 49 0 0 0
SMALL
GASTEIGER

@<TRIPOS>ATOM
      1 N          61.4058   88.0956   10.1119 N.am    1  UNL1       -0.2541
      2 C          60.6727   87.1957    9.1618 C.2     1  UNL1        0.2456
      3 O          60.7461   85.7070    9.3311 O.2     1  UNL1       -0.2730
      4 C          59.8662   87.7843    8.0425 C.3     1  UNL1        0.1555
      5 N          59.7927   89.2729    7.8732 N.3     1  UNL1       -0.2883
      6 C          60.5259   90.1728    8.8232 C.3     1  UNL1        0.0932
      7 C          61.3324   89.5842    9.9425 C.3     1  UNL1        0.1390
      8 H          58.8065   89.5273    7.9284 H       1  UNL1        0.1237
      9 C          63.8255   86.3297   13.4699 C.ar    1  UNL1        0.1386
     10 C          63.8375   87.8111   13.2353 C.ar    1  UNL1        0.0382
     11 C          63.0309   88.3998   12.1160 C.ar    1  UNL1        0.0180
     12 C          62.2124   87.5070   11.2312 C.ar    1  UNL1        0.0542
     13 C          62.2004   86.0255   11.4658 C.ar    1  UNL1        0.0180
     14 C          63.0070   85.4369   12.5852 C.ar    1  UNL1        0.0382
     15 O          64.6321   85.7410   14.5893 O.3     1  UNL1       -0.4754
     16 C          64.0450   85.6436   15.9661 C.3     1  UNL1        0.2080
     17 C          62.6591   85.1014   16.1539 C.3     1  UNL1        0.0794
     18 C          62.2193   83.8867   15.3916 C.3     1  UNL1        0.1465
     19 O          63.0172   82.6192   15.4753 O.3     1  UNL1       -0.3488
     20 C          64.1716   82.3968   14.5438 C.3     1  UNL1        0.1716
     21 C          62.9260   81.0299   12.7191 C.ar    1  UNL1        0.1370
     22 C          62.6741   80.7207   11.2730 C.ar    1  UNL1        0.0367
     23 C          63.4162   81.4691   10.2058 C.ar    1  UNL1        0.0031
     24 C          64.4100   82.5268   10.5845 C.ar    1  UNL1       -0.0000
     25 C          64.6619   82.8361   12.0305 C.ar    1  UNL1        0.0012
     26 C          63.9198   82.0876   13.0978 C.ar    1  UNL1        0.0413
     27 C          60.7565   80.6276   14.0908 C.3     1  UNL1        0.2525
     28 O          62.1838   80.2814   13.7864 O.3     1  UNL1       -0.4717
     29 C          62.0656   90.4842   10.8926 C.3     1  UNL1        0.2267
     30 O          63.0912   91.4474   10.3728 O.3     1  UNL1       -0.4736
     31 C          64.2750   91.8116   11.2191 C.ar    1  UNL1        0.1398
     32 C          65.5075   92.3795   10.5801 C.ar    1  UNL1        0.0367
     33 C          66.6912   92.7436   11.4264 C.ar    1  UNL1        0.0001
     34 C          66.6423   92.5399   12.9117 C.ar    1  UNL1       -0.0086
     35 C          65.4098   91.9721   13.5507 C.ar    1  UNL1        0.0468
     36 C          64.2261   91.6079   12.7044 C.ar    1  UNL1        0.0511
     37 N          65.3610   91.7684   15.0360 N.pl3   1  UNL1       -0.3073
     38 C          66.5446   92.1325   15.8823 C.3     1  UNL1        0.0911
     39 C          67.7773   92.7004   15.2433 C.3     1  UNL1        0.0261
     40 C          67.8261   92.9041   13.7580 C.3     1  UNL1        0.0294
     41 C          64.1284   91.2005   15.6750 C.3     1  UNL1        0.0967
     42 C          63.8915   89.7194   15.6623 C.3     1  UNL1        0.0631
     43 C          62.8144   89.1248   16.5205 C.2     1  UNL1        0.0521
     44 O          63.1791   88.3429   17.7475 O.co2   1  UNL1       -0.5491
     45 O          61.3726   89.3122   16.1516 O.co2   1  UNL1       -0.5491
@<TRIPOS>UNITY_ATOM_ATTR
44 1
charge -1
@<TRIPOS>BOND
     1    27    28    1
     2    28    21    1
     3    21    22   ar
     4    22    23   ar
     5    23    24   ar
     6    24    25   ar
     7    25    26   ar
     8    26    20    1
     9    20    19    1
    10    19    18    1
    11    18    17    1
    12    17    16    1
    13    16    15    1
    14    15     9    1
    15     9    10   ar
    16    10    11   ar
    17    11    12   ar
    18    12     1    1
    19     1     2   am
    20     2     3    2
    21     2     4    1
    22     4     5    1
    23     5     6    1
    24     6     7    1
    25     7    29    1
    26    29    30    1
    27    30    31    1
    28    31    32   ar
    29    32    33   ar
    30    33    34   ar
    31    34    35   ar
    32    35    36   ar
    33    35    37    1
    34    37    41    1
    35    41    42    1
    36    42    43    1
    37    43    44   ar
    38    43    45   ar
    39    37    38    1
    40    38    39    1
    41    39    40    1
    42    12    13   ar
    43    13    14   ar
    44    26    21   ar
    45    14     9   ar
    46     7     1    1
    47    36    31   ar
    48    40    34    1
    49     5     8    1
@<TRIPOS>MOLECULE
*****
 45 49 0 0 0
SMALL
GASTEIGER

@<TRIPOS>ATOM
      1 N          63.4876   94.5762    0.0892 N.am    1  UNL1       -0.2541
      2 C          64.5113   95.5695    0.5532 C.2     1  UNL1        0.2456
      3 O          64.5692   95.9672    1.9984 O.2     1  UNL1       -0.2730
      4 C          65.4771   96.1650   -0.4278 C.3     1  UNL1        0.1555
      5 N          65.4192   95.7674   -1.8730 N.3     1  UNL1       -0.2883
      6 C          64.3955   94.7741   -2.3370 C.3     1  UNL1        0.0932
      7 C          63.4297   94.1785   -1.3560 C.3     1  UNL1        0.1390
      8 H          66.3330   95.3803   -2.1087 H       1  UNL1        0.1237
      9 C          60.5901   92.7895    3.0324 C.ar    1  UNL1        0.1386
     10 C          61.9704   92.2180    2.8975 C.ar    1  UNL1        0.0382
     11 C          62.9362   92.8136    1.9165 C.ar    1  UNL1        0.0180
     12 C          62.5218   93.9806    1.0702 C.ar    1  UNL1        0.0542
     13 C          61.1415   94.5521    1.2051 C.ar    1  UNL1        0.0180
     14 C          60.1757   93.9565    2.1861 C.ar    1  UNL1        0.0382
     15 O          59.6243   92.1939    4.0134 O.3     1  UNL1       -0.4754
     16 C          60.0798   91.1205    4.9569 C.3     1  UNL1        0.2080
     17 C          59.0772   90.3820    5.7932 C.3     1  UNL1        0.0794
     18 C          59.3832   88.9976    6.2829 C.3     1  UNL1        0.1465
     19 O          58.7221   88.4782    7.5251 O.3     1  UNL1       -0.3488
     20 C          58.9032   87.0447    7.9278 C.3     1  UNL1        0.1716
     21 C          61.1279   86.8270    9.2518 C.ar    1  UNL1        0.1370
     22 C          62.5078   86.2549    9.3882 C.ar    1  UNL1        0.0367
     23 C          63.0428   85.3283    8.3369 C.ar    1  UNL1        0.0031
     24 C          62.1979   84.9738    7.1493 C.ar    1  UNL1       -0.0000
     25 C          60.8180   85.5459    7.0129 C.ar    1  UNL1        0.0012
     26 C          60.2830   86.4725    8.0641 C.ar    1  UNL1        0.0413
     27 C          60.9097   89.2186   10.2432 C.3     1  UNL1        0.2525
     28 O          60.5929   87.7537   10.3031 O.3     1  UNL1       -0.4717
     29 C          62.4059   93.1852   -1.8201 C.3     1  UNL1        0.2267
     30 O          61.4395   93.5559   -2.9057 O.3     1  UNL1       -0.4736
     31 C          60.1453   94.2306   -2.5595 C.ar    1  UNL1        0.1398
     32 C          60.1320   95.6857   -2.1957 C.ar    1  UNL1        0.0367
     33 C          58.8378   96.3604   -1.8495 C.ar    1  UNL1        0.0001
     34 C          57.5570   95.5800   -1.8672 C.ar    1  UNL1       -0.0086
     35 C          57.5703   94.1249   -2.2310 C.ar    1  UNL1        0.0468
     36 C          58.8645   93.4502   -2.5772 C.ar    1  UNL1        0.0511
     37 N          56.2894   93.3444   -2.2487 N.pl3   1  UNL1       -0.3073
     38 C          54.9952   94.0191   -1.9025 C.3     1  UNL1        0.0911
     39 C          54.9819   95.4743   -1.5387 C.3     1  UNL1        0.0261
     40 C          56.2627   96.2547   -1.5210 C.3     1  UNL1        0.0294
     41 C          56.3027   91.8893   -2.6125 C.3     1  UNL1        0.0967
     42 C          56.7351   91.4631   -3.9841 C.3     1  UNL1        0.0631
     43 C          55.8059   91.6314   -5.1496 C.2     1  UNL1        0.0521
     44 O          54.9329   90.4915   -5.5835 O.co2   1  UNL1       -0.5491
     45 O          55.7497   92.9397   -5.8811 O.co2   1  UNL1       -0.5491
@<TRIPOS>UNITY_ATOM_ATTR
44 1
charge -1
@<TRIPOS>BOND
     1    27    28    1
     2    28    21    1
     3    21    22   ar
     4    22    23   ar
     5    23    24   ar
     6    24    25   ar
     7    25    26   ar
     8    26    20    1
     9    20    19    1
    10    19    18    1
    11    18    17    1
    12    17    16    1
    13    16    15    1
    14    15     9    1
    15     9    10   ar
    16    10    11   ar
    17    11    12   ar
    18    12     1    1
    19     1     2   am
    20     2     3    2
    21     2     4    1
    22     4     5    1
    23     5     6    1
    24     6     7    1
    25     7    29    1
    26    29    30    1
    27    30    31    1
    28    31    32   ar
    29    32    33   ar
    30    33    34   ar
    31    34    35   ar
    32    35    36   ar
    33    35    37    1
    34    37    41    1
    35    41    42    1
    36    42    43    1
    37    43    44   ar
    38    43    45   ar
    39    37    38    1
    40    38    39    1
    41    39    40    1
    42    12    13   ar
    43    13    14   ar
    44    26    21   ar
    45    14     9   ar
    46     7     1    1
    47    36    31   ar
    48    40    34    1
    49     5     8    1
