@<TRIPOS>MOLECULE
*****
 23 26 0 0 0
SMALL
GASTEIGER

@<TRIPOS>ATOM
      1 C          62.9282   85.9719   12.4174 C.3     1  UNL1        0.1518
      2 N          62.9285   87.4316   12.0716 N.ar    1  UNL1       -0.2662
      3 C          63.5288   88.5325   12.8947 C.ar    1  UNL1        0.0541
      4 C          63.2998   89.8278   12.1737 C.ar    1  UNL1        0.0484
      5 C          62.5580   89.5274   10.9051 C.ar    1  UNL1        0.2759
      6 O          62.1222   90.5317    9.8797 O.2     1  UNL1       -0.2655
      7 N          62.3285   88.0465   10.8420 N.ar    1  UNL1       -0.2139
      8 C          63.9001   90.9288   12.9969 C.3     1  UNL1        0.0286
      9 C          64.6419   91.2293   14.2655 C.3     1  UNL1        0.0049
     10 C          64.8708   89.9340   14.9864 C.3     1  UNL1        0.0059
     11 C          64.2706   88.8330   14.1634 C.3     1  UNL1        0.0352
     12 C          64.2703   87.3734   14.5092 C.3     1  UNL1        0.0059
     13 C          63.6706   89.4478   12.9337 C.3     1  UNL1        0.0088
     14 C          63.1551   88.1892   12.3012 C.3     1  UNL1        0.0007
     15 C          62.9401   89.4054   11.6243 C.3     1  UNL1        0.0007
     16 C          61.6229   87.3096    9.7423 C.ar    1  UNL1        0.0954
     17 C          62.3890   86.3736    8.8551 C.ar    1  UNL1        0.0314
     18 C          61.6835   85.6367    7.7554 C.ar    1  UNL1        0.0592
     19 CL         62.4496   84.7007    6.8682 Cl      1  UNL1       -0.0822
     20 C          60.2121   85.8357    7.5430 C.ar    1  UNL1        0.0124
     21 C          59.4460   86.7717    8.4302 C.ar    1  UNL1        0.0138
     22 C          60.1515   87.5086    9.5299 C.ar    1  UNL1        0.0754
     23 CL         59.3854   88.4446   10.4171 Cl      1  UNL1       -0.0807
@<TRIPOS>BOND
     1     1     2    1
     2     2     3   ar
     3     3     4   ar
     4     4     5   ar
     5     5     6    2
     6     5     7   ar
     7     7    16    1
     8    16    17   ar
     9    17    18   ar
    10    18    19    1
    11    18    20   ar
    12    20    21   ar
    13    21    22   ar
    14    22    23    1
    15     4     8    1
    16     8     9    1
    17     9    10    1
    18    10    11    1
    19    11    12    1
    20    11    13    1
    21    13    14    1
    22    13    15    1
    23     7     2   ar
    24    22    16   ar
    25    13     8    1
    26    11     3    1
@<TRIPOS>MOLECULE
*****
 23 26 0 0 0
SMALL
GASTEIGER

@<TRIPOS>ATOM
      1 C          63.7310   91.4557   10.2652 C.3     1  UNL1        0.1518
      2 N          63.9500   91.0308   11.6870 N.ar    1  UNL1       -0.2662
      3 C          64.8221   91.7256   12.6904 C.ar    1  UNL1        0.0541
      4 C          64.7464   90.9606   13.9786 C.ar    1  UNL1        0.0484
      5 C          63.8276   89.7933   13.7712 C.ar    1  UNL1        0.2759
      6 O          63.4648   88.7633   14.7996 O.2     1  UNL1       -0.2655
      7 N          63.3354   89.8366   12.3550 N.ar    1  UNL1       -0.2139
      8 C          65.6185   91.6554   14.9820 C.3     1  UNL1        0.0286
      9 C          66.5373   92.8228   15.1893 C.3     1  UNL1        0.0049
     10 C          66.6129   93.5876   13.9012 C.3     1  UNL1        0.0059
     11 C          65.7409   92.8929   12.8977 C.3     1  UNL1        0.0352
     12 C          65.5219   93.3179   11.4760 C.3     1  UNL1        0.0059
     13 C          65.1263   91.6987   13.5657 C.3     1  UNL1        0.0088
     14 C          64.3305   91.1934   12.3989 C.3     1  UNL1        0.0007
     15 C          64.2595   90.4753   13.6084 C.3     1  UNL1        0.0007
     16 C          62.3939   88.8577   11.7184 C.ar    1  UNL1        0.0954
     17 C          62.8262   87.4390   11.4935 C.ar    1  UNL1        0.0314
     18 C          61.8848   86.4600   10.8569 C.ar    1  UNL1        0.0592
     19 CL         62.3171   85.0414   10.6321 Cl      1  UNL1       -0.0822
     20 C          60.5111   86.8997   10.4451 C.ar    1  UNL1        0.0124
     21 C          60.0788   88.3184   10.6699 C.ar    1  UNL1        0.0138
     22 C          61.0202   89.2974   11.3066 C.ar    1  UNL1        0.0754
     23 CL         60.5879   90.7160   11.5314 Cl      1  UNL1       -0.0807
@<TRIPOS>BOND
     1     1     2    1
     2     2     3   ar
     3     3     4   ar
     4     4     5   ar
     5     5     6    2
     6     5     7   ar
     7     7    16    1
     8    16    17   ar
     9    17    18   ar
    10    18    19    1
    11    18    20   ar
    12    20    21   ar
    13    21    22   ar
    14    22    23    1
    15     4     8    1
    16     8     9    1
    17     9    10    1
    18    10    11    1
    19    11    12    1
    20    11    13    1
    21    13    14    1
    22    13    15    1
    23     7     2   ar
    24    22    16   ar
    25    13     8    1
    26    11     3    1
@<TRIPOS>MOLECULE
*****
 23 26 0 0 0
SMALL
GASTEIGER

@<TRIPOS>ATOM
      1 C          62.7996   89.5349   11.9881 C.3     1  UNL1        0.1518
      2 N          63.8766   90.3443   12.6477 N.ar    1  UNL1       -0.2662
      3 C          64.5479   91.5552   12.0706 C.ar    1  UNL1        0.0541
      4 C          65.5575   92.0442   13.0665 C.ar    1  UNL1        0.0484
      5 C          65.5101   91.1355   14.2590 C.ar    1  UNL1        0.2759
      6 O          66.3536   91.2562   15.4935 O.2     1  UNL1       -0.2655
      7 N          64.4713   90.0849   14.0002 N.ar    1  UNL1       -0.2139
      8 C          66.2289   93.2551   12.4894 C.3     1  UNL1        0.0286
      9 C          66.2763   94.1638   11.2969 C.3     1  UNL1        0.0049
     10 C          65.2667   93.6748   10.3011 C.3     1  UNL1        0.0059
     11 C          64.5953   92.4639   10.8782 C.3     1  UNL1        0.0352
     12 C          63.5183   91.6545   10.2186 C.3     1  UNL1        0.0059
     13 C          65.1900   92.2045   12.2306 C.3     1  UNL1        0.0088
     14 C          64.3824   90.9910   12.5845 C.3     1  UNL1        0.0007
     15 C          65.3303   91.4501   13.5195 C.3     1  UNL1        0.0007
     16 C          64.0933   88.9706   14.9304 C.ar    1  UNL1        0.0954
     17 C          64.3937   87.5488   14.5585 C.ar    1  UNL1        0.0314
     18 C          64.0158   86.4343   15.4886 C.ar    1  UNL1        0.0592
     19 CL         64.3163   85.0125   15.1167 Cl      1  UNL1       -0.0822
     20 C          63.3375   86.7416   16.7907 C.ar    1  UNL1        0.0124
     21 C          63.0370   88.1634   17.1626 C.ar    1  UNL1        0.0138
     22 C          63.4149   89.2779   16.2325 C.ar    1  UNL1        0.0754
     23 CL         63.1145   90.6997   16.6044 Cl      1  UNL1       -0.0807
@<TRIPOS>BOND
     1     1     2    1
     2     2     3   ar
     3     3     4   ar
     4     4     5   ar
     5     5     6    2
     6     5     7   ar
     7     7    16    1
     8    16    17   ar
     9    17    18   ar
    10    18    19    1
    11    18    20   ar
    12    20    21   ar
    13    21    22   ar
    14    22    23    1
    15     4     8    1
    16     8     9    1
    17     9    10    1
    18    10    11    1
    19    11    12    1
    20    11    13    1
    21    13    14    1
    22    13    15    1
    23     7     2   ar
    24    22    16   ar
    25    13     8    1
    26    11     3    1
@<TRIPOS>MOLECULE
*****
 23 26 0 0 0
SMALL
GASTEIGER

@<TRIPOS>ATOM
      1 C          62.4085   90.4997    9.8634 C.3     1  UNL1        0.1518
      2 N          62.7151   89.4898   10.9293 N.ar    1  UNL1       -0.2662
      3 C          63.4423   89.7568   12.2137 C.ar    1  UNL1        0.0541
      4 C          63.5251   88.4675   12.9761 C.ar    1  UNL1        0.0484
      5 C          62.8490   87.4039   12.1627 C.ar    1  UNL1        0.2759
      6 O          62.6997   85.9616   12.5470 O.2     1  UNL1       -0.2655
      7 N          62.3484   88.0357   10.8978 N.ar    1  UNL1       -0.2139
      8 C          64.2523   88.7345   14.2606 C.3     1  UNL1        0.0286
      9 C          64.9284   89.7982   15.0739 C.3     1  UNL1        0.0049
     10 C          64.8457   91.0873   14.3116 C.3     1  UNL1        0.0059
     11 C          64.1184   90.8204   13.0271 C.3     1  UNL1        0.0352
     12 C          63.8118   91.8304   11.9612 C.3     1  UNL1        0.0059
     13 C          63.7517   89.3663   12.9956 C.3     1  UNL1        0.0088
     14 C          63.0615   89.3538   11.6639 C.3     1  UNL1        0.0007
     15 C          63.1391   88.1434   12.3796 C.3     1  UNL1        0.0007
     16 C          61.6106   87.3362    9.7949 C.ar    1  UNL1        0.0954
     17 C          62.3393   86.3891    8.8881 C.ar    1  UNL1        0.0314
     18 C          61.6017   85.6896    7.7852 C.ar    1  UNL1        0.0592
     19 CL         62.3303   84.7426    6.8785 Cl      1  UNL1       -0.0822
     20 C          60.1353   85.9372    7.5889 C.ar    1  UNL1        0.0124
     21 C          59.4066   86.8843    8.4956 C.ar    1  UNL1        0.0138
     22 C          60.1443   87.5838    9.5986 C.ar    1  UNL1        0.0754
     23 CL         59.4156   88.5309   10.5053 Cl      1  UNL1       -0.0807
@<TRIPOS>BOND
     1     1     2    1
     2     2     3   ar
     3     3     4   ar
     4     4     5   ar
     5     5     6    2
     6     5     7   ar
     7     7    16    1
     8    16    17   ar
     9    17    18   ar
    10    18    19    1
    11    18    20   ar
    12    20    21   ar
    13    21    22   ar
    14    22    23    1
    15     4     8    1
    16     8     9    1
    17     9    10    1
    18    10    11    1
    19    11    12    1
    20    11    13    1
    21    13    14    1
    22    13    15    1
    23     7     2   ar
    24    22    16   ar
    25    13     8    1
    26    11     3    1
@<TRIPOS>MOLECULE
*****
 23 26 0 0 0
SMALL
GASTEIGER

@<TRIPOS>ATOM
      1 C          63.6670   84.3060   10.1912 C.3     1  UNL1        0.1518
      2 N          63.1619   84.0167   11.5737 N.ar    1  UNL1       -0.2662
      3 C          62.8926   82.6572   12.1474 C.ar    1  UNL1        0.0541
      4 C          62.4017   82.8364   13.5535 C.ar    1  UNL1        0.0484
      5 C          62.3677   84.3067   13.8487 C.ar    1  UNL1        0.2759
      6 O          61.9390   84.9367   15.1407 O.2     1  UNL1       -0.2655
      7 N          62.8375   85.0361   12.6252 N.ar    1  UNL1       -0.2139
      8 C          62.1324   81.4768   14.1271 C.3     1  UNL1        0.0286
      9 C          62.1664   80.0065   13.8319 C.3     1  UNL1        0.0049
     10 C          62.6573   79.8274   12.4259 C.3     1  UNL1        0.0059
     11 C          62.9267   81.1869   11.8521 C.3     1  UNL1        0.0352
     12 C          63.4317   81.4762   10.4697 C.3     1  UNL1        0.0059
     13 C          62.6022   82.2063   12.9036 C.3     1  UNL1        0.0088
     14 C          62.9419   83.4358   12.1143 C.3     1  UNL1        0.0007
     15 C          62.4810   83.6040   13.4344 C.3     1  UNL1        0.0007
     16 C          62.9612   86.5238   12.4787 C.ar    1  UNL1        0.0954
     17 C          62.2670   87.2265   11.3498 C.ar    1  UNL1        0.0314
     18 C          62.3907   88.7142   11.2032 C.ar    1  UNL1        0.0592
     19 CL         61.6964   89.4169   10.0743 Cl      1  UNL1       -0.0822
     20 C          63.2085   89.4992   12.1854 C.ar    1  UNL1        0.0124
     21 C          63.9028   88.7965   13.3143 C.ar    1  UNL1        0.0138
     22 C          63.7791   87.3088   13.4609 C.ar    1  UNL1        0.0754
     23 CL         64.4733   86.6061   14.5898 Cl      1  UNL1       -0.0807
@<TRIPOS>BOND
     1     1     2    1
     2     2     3   ar
     3     3     4   ar
     4     4     5   ar
     5     5     6    2
     6     5     7   ar
     7     7    16    1
     8    16    17   ar
     9    17    18   ar
    10    18    19    1
    11    18    20   ar
    12    20    21   ar
    13    21    22   ar
    14    22    23    1
    15     4     8    1
    16     8     9    1
    17     9    10    1
    18    10    11    1
    19    11    12    1
    20    11    13    1
    21    13    14    1
    22    13    15    1
    23     7     2   ar
    24    22    16   ar
    25    13     8    1
    26    11     3    1
@<TRIPOS>MOLECULE
*****
 23 26 0 0 0
SMALL
GASTEIGER

@<TRIPOS>ATOM
      1 C          63.8191   91.4790   10.3452 C.3     1  UNL1        0.1518
      2 N          64.5437   91.7708   11.6258 N.ar    1  UNL1       -0.2662
      3 C          64.2119   91.2056   12.9750 C.ar    1  UNL1        0.0541
      4 C          65.1905   91.7644   13.9650 C.ar    1  UNL1        0.0484
      5 C          66.1271   92.6750   13.2275 C.ar    1  UNL1        0.2759
      6 O          67.2638   93.4462   13.8302 O.2     1  UNL1       -0.2655
      7 N          65.7273   92.6789   11.7819 N.ar    1  UNL1       -0.2139
      8 C          64.8587   91.1992   15.3143 C.3     1  UNL1        0.0286
      9 C          63.9222   90.2887   16.0517 C.3     1  UNL1        0.0049
     10 C          62.9436   89.7299   15.0617 C.3     1  UNL1        0.0059
     11 C          63.2753   90.2950   13.7124 C.3     1  UNL1        0.0352
     12 C          62.5507   90.0033   12.4319 C.3     1  UNL1        0.0059
     13 C          64.4590   91.2032   13.8685 C.3     1  UNL1        0.0088
     14 C          64.5883   91.6258   12.4351 C.3     1  UNL1        0.0007
     15 C          65.5071   92.1505   13.3646 C.3     1  UNL1        0.0007
     16 C          66.3941   93.4547   10.6848 C.ar    1  UNL1        0.0954
     17 C          65.8204   94.7669   10.2388 C.ar    1  UNL1        0.0314
     18 C          66.4870   95.5428    9.1417 C.ar    1  UNL1        0.0592
     19 CL         65.9134   96.8551    8.6957 Cl      1  UNL1       -0.0822
     20 C          67.7273   95.0064    8.4906 C.ar    1  UNL1        0.0124
     21 C          68.3010   93.6941    8.9366 C.ar    1  UNL1        0.0138
     22 C          67.6343   92.9183   10.0337 C.ar    1  UNL1        0.0754
     23 CL         68.2080   91.6060   10.4797 Cl      1  UNL1       -0.0807
@<TRIPOS>BOND
     1     1     2    1
     2     2     3   ar
     3     3     4   ar
     4     4     5   ar
     5     5     6    2
     6     5     7   ar
     7     7    16    1
     8    16    17   ar
     9    17    18   ar
    10    18    19    1
    11    18    20   ar
    12    20    21   ar
    13    21    22   ar
    14    22    23    1
    15     4     8    1
    16     8     9    1
    17     9    10    1
    18    10    11    1
    19    11    12    1
    20    11    13    1
    21    13    14    1
    22    13    15    1
    23     7     2   ar
    24    22    16   ar
    25    13     8    1
    26    11     3    1
@<TRIPOS>MOLECULE
*****
 23 26 0 0 0
SMALL
GASTEIGER

@<TRIPOS>ATOM
      1 C          64.1955   86.1037   14.0826 C.3     1  UNL1        0.1518
      2 N          63.4113   86.4869   12.8626 N.ar    1  UNL1       -0.2662
      3 C          63.1408   87.8851   12.3916 C.ar    1  UNL1        0.0541
      4 C          62.3222   87.8014   11.1374 C.ar    1  UNL1        0.0484
      5 C          62.0869   86.3515   10.8334 C.ar    1  UNL1        0.2759
      6 O          61.3140   85.8093    9.6677 O.2     1  UNL1       -0.2655
      7 N          62.7599   85.5391   11.8996 N.ar    1  UNL1       -0.2139
      8 C          62.0518   89.1996   10.6664 C.3     1  UNL1        0.0286
      9 C          62.2871   90.6495   10.9704 C.3     1  UNL1        0.0049
     10 C          63.1057   90.7331   12.2245 C.3     1  UNL1        0.0059
     11 C          63.3762   89.3350   12.6956 C.3     1  UNL1        0.0352
     12 C          64.1604   88.9519   13.9156 C.3     1  UNL1        0.0059
     13 C          62.7248   88.3872   11.7326 C.3     1  UNL1        0.0088
     14 C          63.1254   87.1044   12.3989 C.3     1  UNL1        0.0007
     15 C          62.3569   87.0258   11.2214 C.3     1  UNL1        0.0007
     16 C          62.7784   84.0418   11.9875 C.ar    1  UNL1        0.0954
     17 C          62.1858   83.3533   13.1812 C.ar    1  UNL1        0.0314
     18 C          62.2043   81.8560   13.2692 C.ar    1  UNL1        0.0592
     19 CL         61.6117   81.1675   14.4629 Cl      1  UNL1       -0.0822
     20 C          62.8153   81.0472   12.1636 C.ar    1  UNL1        0.0124
     21 C          63.4079   81.7357   10.9699 C.ar    1  UNL1        0.0138
     22 C          63.3895   83.2330   10.8819 C.ar    1  UNL1        0.0754
     23 CL         63.9821   83.9215    9.6882 Cl      1  UNL1       -0.0807
@<TRIPOS>BOND
     1     1     2    1
     2     2     3   ar
     3     3     4   ar
     4     4     5   ar
     5     5     6    2
     6     5     7   ar
     7     7    16    1
     8    16    17   ar
     9    17    18   ar
    10    18    19    1
    11    18    20   ar
    12    20    21   ar
    13    21    22   ar
    14    22    23    1
    15     4     8    1
    16     8     9    1
    17     9    10    1
    18    10    11    1
    19    11    12    1
    20    11    13    1
    21    13    14    1
    22    13    15    1
    23     7     2   ar
    24    22    16   ar
    25    13     8    1
    26    11     3    1
@<TRIPOS>MOLECULE
*****
 23 26 0 0 0
SMALL
GASTEIGER

@<TRIPOS>ATOM
      1 C          62.1765   86.9418   11.0508 C.3     1  UNL1        0.1518
      2 N          62.9867   87.1243   12.3000 N.ar    1  UNL1       -0.2662
      3 C          63.4775   88.4309   12.8494 C.ar    1  UNL1        0.0541
      4 C          64.2425   88.1463   14.1080 C.ar    1  UNL1        0.0484
      5 C          64.2245   86.6639   14.3362 C.ar    1  UNL1        0.2759
      6 O          64.8695   85.9402   15.4809 O.2     1  UNL1       -0.2655
      7 N          63.4484   86.0323   13.2188 N.ar    1  UNL1       -0.2139
      8 C          64.7333   89.4529   14.6575 C.3     1  UNL1        0.0286
      9 C          64.7513   90.9354   14.4293 C.3     1  UNL1        0.0049
     10 C          63.9862   91.2199   13.1708 C.3     1  UNL1        0.0059
     11 C          63.4954   89.9133   12.6212 C.3     1  UNL1        0.0352
     12 C          62.6852   89.7308   11.3721 C.3     1  UNL1        0.0059
     13 C          63.9572   88.8213   13.5401 C.3     1  UNL1        0.0088
     14 C          63.3618   87.6602   12.8001 C.3     1  UNL1        0.0007
     15 C          64.0801   87.3930   13.9817 C.3     1  UNL1        0.0007
     16 C          63.1809   84.5660   13.0498 C.ar    1  UNL1        0.0954
     17 C          63.5882   83.8703   11.7848 C.ar    1  UNL1        0.0314
     18 C          63.3208   82.4041   11.6157 C.ar    1  UNL1        0.0592
     19 CL         63.7281   81.7084   10.3507 Cl      1  UNL1       -0.0822
     20 C          62.6460   81.6336   12.7115 C.ar    1  UNL1        0.0124
     21 C          62.2387   82.3292   13.9765 C.ar    1  UNL1        0.0138
     22 C          62.5062   83.7955   14.1457 C.ar    1  UNL1        0.0754
     23 CL         62.0989   84.4911   15.4106 Cl      1  UNL1       -0.0807
@<TRIPOS>BOND
     1     1     2    1
     2     2     3   ar
     3     3     4   ar
     4     4     5   ar
     5     5     6    2
     6     5     7   ar
     7     7    16    1
     8    16    17   ar
     9    17    18   ar
    10    18    19    1
    11    18    20   ar
    12    20    21   ar
    13    21    22   ar
    14    22    23    1
    15     4     8    1
    16     8     9    1
    17     9    10    1
    18    10    11    1
    19    11    12    1
    20    11    13    1
    21    13    14    1
    22    13    15    1
    23     7     2   ar
    24    22    16   ar
    25    13     8    1
    26    11     3    1
@<TRIPOS>MOLECULE
*****
 23 26 0 0 0
SMALL
GASTEIGER

@<TRIPOS>ATOM
      1 C          61.9646   85.8173   10.8031 C.3     1  UNL1        0.1518
      2 N          62.7648   85.9850   12.0608 N.ar    1  UNL1       -0.2662
      3 C          63.2323   87.2867   12.6413 C.ar    1  UNL1        0.0541
      4 C          63.9944   86.9865   13.8980 C.ar    1  UNL1        0.0484
      5 C          63.9978   85.4994   14.0940 C.ar    1  UNL1        0.2759
      6 O          64.6472   84.7609   15.2268 O.2     1  UNL1       -0.2655
      7 N          63.2379   84.8804   12.9586 N.ar    1  UNL1       -0.2139
      8 C          64.4619   88.2882   14.4786 C.3     1  UNL1        0.0286
      9 C          64.4585   89.7753   14.2826 C.3     1  UNL1        0.0049
     10 C          63.6965   90.0754   13.0259 C.3     1  UNL1        0.0059
     11 C          63.2289   88.7738   12.4453 C.3     1  UNL1        0.0352
     12 C          62.4288   88.6062   11.1876 C.3     1  UNL1        0.0059
     13 C          63.7020   87.6692   13.3431 C.3     1  UNL1        0.0088
     14 C          63.1288   86.5155   12.5746 C.3     1  UNL1        0.0007
     15 C          63.8443   86.2337   13.7545 C.3     1  UNL1        0.0007
     16 C          62.9938   83.4143   12.7563 C.ar    1  UNL1        0.0954
     17 C          62.0355   82.6834   13.6493 C.ar    1  UNL1        0.0314
     18 C          61.7913   81.2173   13.4471 C.ar    1  UNL1        0.0592
     19 CL         60.8329   80.4864   14.3401 Cl      1  UNL1       -0.0822
     20 C          62.5055   80.4821   12.3520 C.ar    1  UNL1        0.0124
     21 C          63.4639   81.2130   11.4591 C.ar    1  UNL1        0.0138
     22 C          63.7081   82.6791   11.6612 C.ar    1  UNL1        0.0754
     23 CL         64.6665   83.4100   10.7683 Cl      1  UNL1       -0.0807
@<TRIPOS>BOND
     1     1     2    1
     2     2     3   ar
     3     3     4   ar
     4     4     5   ar
     5     5     6    2
     6     5     7   ar
     7     7    16    1
     8    16    17   ar
     9    17    18   ar
    10    18    19    1
    11    18    20   ar
    12    20    21   ar
    13    21    22   ar
    14    22    23    1
    15     4     8    1
    16     8     9    1
    17     9    10    1
    18    10    11    1
    19    11    12    1
    20    11    13    1
    21    13    14    1
    22    13    15    1
    23     7     2   ar
    24    22    16   ar
    25    13     8    1
    26    11     3    1
