@<TRIPOS>MOLECULE
*****
 31 34 0 0 0
SMALL
GASTEIGER

@<TRIPOS>ATOM
      1 C          64.2221   87.5387   14.3290 C.ar    1  UNL1        0.0073
      2 C          64.8123   86.3127   14.9602 C.ar    1  UNL1       -0.0019
      3 C          64.5683   84.9640   14.3510 C.ar    1  UNL1       -0.0002
      4 C          63.7341   84.8412   13.1104 C.ar    1  UNL1        0.0008
      5 C          63.1438   86.0672   12.4792 C.ar    1  UNL1       -0.0002
      6 C          63.3878   87.4159   13.0884 C.ar    1  UNL1       -0.0019
      7 C          63.4901   83.4923   12.5011 C.ar    1  UNL1        0.0106
      8 C          63.9938   83.1906   11.1209 C.ar    1  UNL1        0.0008
      9 C          63.7498   81.8418   10.5116 C.ar    1  UNL1        0.0039
     10 C          63.0021   80.7948   11.2827 C.ar    1  UNL1        0.0723
     11 C          62.4983   81.0965   12.6629 C.ar    1  UNL1        0.0152
     12 C          62.7423   82.4453   13.2722 C.ar    1  UNL1        0.0576
     13 CL         62.2385   82.7470   14.6525 Cl      1  UNL1       -0.0823
     14 C          62.7581   79.4459   10.6734 C.3     1  UNL1        0.4186
     15 F          62.5141   78.0971   10.0642 F       1  UNL1       -0.1659
     16 F          63.1195   79.9903    9.3233 F       1  UNL1       -0.1659
     17 F          62.3966   78.9015   12.0235 F       1  UNL1       -0.1659
     18 C          64.4661   88.8875   14.9383 C.3     1  UNL1        0.1687
     19 O          63.7742   90.0973   14.3836 O.3     1  UNL1       -0.3457
     20 C          66.4668   94.3932   10.5039 C.ar    1  UNL1        0.3976
     21 C          65.5269   93.2260   10.4386 C.ar    1  UNL1        0.1780
     22 N          65.3582   92.6883   11.8287 N.ar    1  UNL1       -0.2724
     23 C          66.1938   93.5233   12.7532 C.ar    1  UNL1        0.3059
     24 N          66.8789   94.5769   11.9344 N.ar    1  UNL1       -0.1275
     25 O          66.2228   93.2163   14.2211 O.3     1  UNL1       -0.4450
     26 C          65.4163   92.0743   14.7646 C.3     1  UNL1        0.2399
     27 C          64.5807   91.2393   13.8401 C.3     1  UNL1        0.1818
     28 C          64.5517   91.5463   12.3722 C.3     1  UNL1        0.1440
     29 O          67.6336   94.5908    8.1910 O.2     1  UNL1        0.0432
     30 N          66.9156   95.2298    9.3426 N.pl3   1  UNL1        0.1030
     31 O          66.6466   96.7054    9.3329 O.co2   1  UNL1       -0.5746
@<TRIPOS>UNITY_ATOM_ATTR
30 1
charge 1
31 1
charge -1
@<TRIPOS>BOND
     1    29    30    2
     2    30    31    1
     3    30    20    1
     4    20    21   ar
     5    21    22   ar
     6    22    23   ar
     7    23    24   ar
     8    23    25    1
     9    25    26    1
    10    26    27    1
    11    27    19    1
    12    19    18    1
    13    18     1    1
    14     1     2   ar
    15     2     3   ar
    16     3     4   ar
    17     4     7    1
    18     7     8   ar
    19     8     9   ar
    20     9    10   ar
    21    10    14    1
    22    14    15    1
    23    14    16    1
    24    14    17    1
    25    10    11   ar
    26    11    12   ar
    27    12    13    1
    28     4     5   ar
    29     5     6   ar
    30    27    28    1
    31    24    20   ar
    32     6     1   ar
    33    28    22    1
    34    12     7   ar
@<TRIPOS>MOLECULE
*****
 31 34 0 0 0
SMALL
GASTEIGER

@<TRIPOS>ATOM
      1 C          61.3754   89.6391   10.5612 C.ar    1  UNL1        0.0073
      2 C          62.5386   90.2744    9.8588 C.ar    1  UNL1       -0.0019
      3 C          63.6716   90.8510   10.6550 C.ar    1  UNL1       -0.0002
      4 C          63.6413   90.7923   12.1536 C.ar    1  UNL1        0.0008
      5 C          62.4781   90.1570   12.8559 C.ar    1  UNL1       -0.0002
      6 C          61.3451   89.5804   12.0597 C.ar    1  UNL1       -0.0019
      7 C          64.7743   91.3689   12.9498 C.ar    1  UNL1        0.0106
      8 C          65.4310   92.6424   12.5060 C.ar    1  UNL1        0.0008
      9 C          66.5639   93.2189   13.3022 C.ar    1  UNL1        0.0039
     10 C          67.0401   92.5221   14.5422 C.ar    1  UNL1        0.0723
     11 C          66.3834   91.2486   14.9860 C.ar    1  UNL1        0.0152
     12 C          65.2505   90.6720   14.1898 C.ar    1  UNL1        0.0576
     13 CL         64.5937   89.3985   14.6336 Cl      1  UNL1       -0.0823
     14 C          68.1731   93.0987   15.3384 C.3     1  UNL1        0.4186
     15 F          69.3060   93.6753   16.1346 F       1  UNL1       -0.1659
     16 F          69.1398   92.6664   14.2761 F       1  UNL1       -0.1659
     17 F          67.2065   93.5310   16.4008 F       1  UNL1       -0.1659
     18 C          60.2424   89.0624    9.7649 C.3     1  UNL1        0.1687
     19 O          60.4562   87.8258    8.9434 O.3     1  UNL1       -0.3457
     20 C          63.3702   83.5506   12.6833 C.ar    1  UNL1        0.3976
     21 C          62.3237   84.6214   12.7732 C.ar    1  UNL1        0.1780
     22 N          62.1649   85.2298   11.4114 N.ar    1  UNL1       -0.2724
     23 C          63.1133   84.5351   10.4798 C.ar    1  UNL1        0.3059
     24 N          63.8582   83.4972   11.2659 N.ar    1  UNL1       -0.1275
     25 O          63.1760   84.9372    9.0361 O.3     1  UNL1       -0.4450
     26 C          62.2903   86.0341    8.5240 C.3     1  UNL1        0.2399
     27 C          61.3419   86.7289    9.4556 C.3     1  UNL1        0.1818
     28 C          61.2792   86.3267   10.8993 C.3     1  UNL1        0.1440
     29 O          63.9080   81.1962   13.6413 O.2     1  UNL1        0.0432
     30 N          63.8454   82.6850   13.8126 N.pl3   1  UNL1        0.1030
     31 O          64.2579   83.3084   15.1130 O.co2   1  UNL1       -0.5746
@<TRIPOS>UNITY_ATOM_ATTR
30 1
charge 1
31 1
charge -1
@<TRIPOS>BOND
     1    29    30    2
     2    30    31    1
     3    30    20    1
     4    20    21   ar
     5    21    22   ar
     6    22    23   ar
     7    23    24   ar
     8    23    25    1
     9    25    26    1
    10    26    27    1
    11    27    19    1
    12    19    18    1
    13    18     1    1
    14     1     2   ar
    15     2     3   ar
    16     3     4   ar
    17     4     7    1
    18     7     8   ar
    19     8     9   ar
    20     9    10   ar
    21    10    14    1
    22    14    15    1
    23    14    16    1
    24    14    17    1
    25    10    11   ar
    26    11    12   ar
    27    12    13    1
    28     4     5   ar
    29     5     6   ar
    30    27    28    1
    31    24    20   ar
    32     6     1   ar
    33    28    22    1
    34    12     7   ar
@<TRIPOS>MOLECULE
*****
 31 34 0 0 0
SMALL
GASTEIGER

@<TRIPOS>ATOM
      1 C          63.3758   87.5861   16.2144 C.ar    1  UNL1        0.0073
      2 C          64.1357   87.4322   14.9304 C.ar    1  UNL1       -0.0019
      3 C          64.0381   86.1551   14.1497 C.ar    1  UNL1       -0.0002
      4 C          63.1807   85.0320   14.6531 C.ar    1  UNL1        0.0008
      5 C          62.4208   85.1859   15.9371 C.ar    1  UNL1       -0.0002
      6 C          62.5183   86.4630   16.7178 C.ar    1  UNL1       -0.0019
      7 C          63.0831   83.7548   13.8723 C.ar    1  UNL1        0.0106
      8 C          63.3391   82.4408   14.5489 C.ar    1  UNL1        0.0008
      9 C          63.2415   81.1637   13.7682 C.ar    1  UNL1        0.0039
     10 C          62.8881   81.2007   12.3109 C.ar    1  UNL1        0.0723
     11 C          62.6321   82.5148   11.6343 C.ar    1  UNL1        0.0152
     12 C          62.7297   83.7918   12.4151 C.ar    1  UNL1        0.0576
     13 CL         62.4737   85.1059   11.7385 Cl      1  UNL1       -0.0823
     14 C          62.7905   79.9236   11.5301 C.3     1  UNL1        0.4186
     15 F          62.6930   78.6465   10.7494 F       1  UNL1       -0.1659
     16 F          62.5126   79.1702   12.7971 F       1  UNL1       -0.1659
     17 F          63.0684   80.6769   10.2632 F       1  UNL1       -0.1659
     18 C          63.4733   88.8633   16.9951 C.3     1  UNL1        0.1687
     19 O          63.0090   90.1525   16.3851 O.3     1  UNL1       -0.3457
     20 C          66.4314   93.0336   11.8306 C.ar    1  UNL1        0.3976
     21 C          65.3569   91.9960   11.9678 C.ar    1  UNL1        0.1780
     22 N          65.0454   91.8413   13.4269 N.ar    1  UNL1       -0.2724
     23 C          65.9273   92.7834   14.1915 C.ar    1  UNL1        0.3059
     24 N          66.7839   93.5203   13.2049 N.ar    1  UNL1       -0.1275
     25 O          65.8365   92.8485   15.6873 O.3     1  UNL1       -0.4450
     26 C          64.8638   91.9716   16.4185 C.3     1  UNL1        0.2399
     27 C          63.9818   91.0295   15.6539 C.3     1  UNL1        0.1818
     28 C          64.0726   90.9644   14.1581 C.3     1  UNL1        0.1440
     29 O          68.3448   92.9170   10.0770 O.2     1  UNL1        0.0432
     30 N          67.0454   93.5024   10.5448 N.pl3   1  UNL1        0.1030
     31 O          66.3601   94.5564    9.7268 O.co2   1  UNL1       -0.5746
@<TRIPOS>UNITY_ATOM_ATTR
30 1
charge 1
31 1
charge -1
@<TRIPOS>BOND
     1    29    30    2
     2    30    31    1
     3    30    20    1
     4    20    21   ar
     5    21    22   ar
     6    22    23   ar
     7    23    24   ar
     8    23    25    1
     9    25    26    1
    10    26    27    1
    11    27    19    1
    12    19    18    1
    13    18     1    1
    14     1     2   ar
    15     2     3   ar
    16     3     4   ar
    17     4     7    1
    18     7     8   ar
    19     8     9   ar
    20     9    10   ar
    21    10    14    1
    22    14    15    1
    23    14    16    1
    24    14    17    1
    25    10    11   ar
    26    11    12   ar
    27    12    13    1
    28     4     5   ar
    29     5     6   ar
    30    27    28    1
    31    24    20   ar
    32     6     1   ar
    33    28    22    1
    34    12     7   ar
@<TRIPOS>MOLECULE
*****
 31 34 0 0 0
SMALL
GASTEIGER

@<TRIPOS>ATOM
      1 C          63.3938   83.8091   12.0515 C.ar    1  UNL1        0.0073
      2 C          62.3404   84.7244   12.6017 C.ar    1  UNL1       -0.0019
      3 C          61.6200   85.6726   11.6897 C.ar    1  UNL1       -0.0002
      4 C          61.9530   85.7056   10.2275 C.ar    1  UNL1        0.0008
      5 C          63.0063   84.7903    9.6773 C.ar    1  UNL1       -0.0002
      6 C          63.7267   83.8421   10.5893 C.ar    1  UNL1       -0.0019
      7 C          61.2325   86.6539    9.3155 C.ar    1  UNL1        0.0106
      8 C          60.3477   86.1217    8.2275 C.ar    1  UNL1        0.0008
      9 C          59.6273   87.0700    7.3156 C.ar    1  UNL1        0.0039
     10 C          59.7917   88.5505    7.4916 C.ar    1  UNL1        0.0723
     11 C          60.6765   89.0827    8.5796 C.ar    1  UNL1        0.0152
     12 C          61.3969   88.1344    9.4915 C.ar    1  UNL1        0.0576
     13 CL         62.2818   88.6667   10.5796 Cl      1  UNL1       -0.0823
     14 C          59.0712   89.4988    6.5796 C.3     1  UNL1        0.4186
     15 F          58.3507   90.4471    5.6676 F       1  UNL1       -0.1659
     16 F          60.3861   90.0531    6.1171 F       1  UNL1       -0.1659
     17 F          57.7564   88.9446    7.0421 F       1  UNL1       -0.1659
     18 C          64.1142   82.8608   12.9636 C.3     1  UNL1        0.1687
     19 O          64.7131   83.3613   14.2445 O.3     1  UNL1       -0.3457
     20 C          63.8419   89.5599   15.4997 C.ar    1  UNL1        0.3976
     21 C          64.6239   88.6821   14.5680 C.ar    1  UNL1        0.1780
     22 N          64.2923   87.2547   14.8882 N.ar    1  UNL1       -0.2724
     23 C          63.3054   87.2502   16.0178 C.ar    1  UNL1        0.3059
     24 N          63.0270   88.6749   16.3957 N.ar    1  UNL1       -0.1275
     25 O          62.7877   85.9495   16.5563 O.3     1  UNL1       -0.4450
     26 C          63.2569   84.6532   15.9652 C.3     1  UNL1        0.2399
     27 C          64.2438   84.6577   14.8356 C.3     1  UNL1        0.1818
     28 C          64.7615   85.9584   14.2971 C.3     1  UNL1        0.1440
     29 O          63.4297   91.7929   16.7622 O.2     1  UNL1        0.0432
     30 N          63.8699   91.0593   15.5301 N.pl3   1  UNL1        0.1030
     31 O          64.3381   91.8252   14.3284 O.co2   1  UNL1       -0.5746
@<TRIPOS>UNITY_ATOM_ATTR
30 1
charge 1
31 1
charge -1
@<TRIPOS>BOND
     1    29    30    2
     2    30    31    1
     3    30    20    1
     4    20    21   ar
     5    21    22   ar
     6    22    23   ar
     7    23    24   ar
     8    23    25    1
     9    25    26    1
    10    26    27    1
    11    27    19    1
    12    19    18    1
    13    18     1    1
    14     1     2   ar
    15     2     3   ar
    16     3     4   ar
    17     4     7    1
    18     7     8   ar
    19     8     9   ar
    20     9    10   ar
    21    10    14    1
    22    14    15    1
    23    14    16    1
    24    14    17    1
    25    10    11   ar
    26    11    12   ar
    27    12    13    1
    28     4     5   ar
    29     5     6   ar
    30    27    28    1
    31    24    20   ar
    32     6     1   ar
    33    28    22    1
    34    12     7   ar
@<TRIPOS>MOLECULE
*****
 31 34 0 0 0
SMALL
GASTEIGER

@<TRIPOS>ATOM
      1 C          62.3931   88.5856   10.6322 C.ar    1  UNL1        0.0073
      2 C          61.7816   87.4682    9.8400 C.ar    1  UNL1       -0.0019
      3 C          61.8454   86.0611   10.3556 C.ar    1  UNL1       -0.0002
      4 C          62.5206   85.7713   11.6633 C.ar    1  UNL1        0.0008
      5 C          63.1321   86.8887   12.4554 C.ar    1  UNL1       -0.0002
      6 C          63.0683   88.2958   11.9399 C.ar    1  UNL1       -0.0019
      7 C          62.5843   84.3641   12.1789 C.ar    1  UNL1        0.0106
      8 C          62.0751   84.0451   13.5532 C.ar    1  UNL1        0.0008
      9 C          62.1389   82.6380   14.0687 C.ar    1  UNL1        0.0039
     10 C          62.7118   81.5498   13.2099 C.ar    1  UNL1        0.0723
     11 C          63.2209   81.8688   11.8355 C.ar    1  UNL1        0.0152
     12 C          63.1572   83.2759   11.3200 C.ar    1  UNL1        0.0576
     13 CL         63.6664   83.5950    9.9456 Cl      1  UNL1       -0.0823
     14 C          62.7755   80.1426   13.7254 C.3     1  UNL1        0.4186
     15 F          62.8391   78.7354   14.2410 F       1  UNL1       -0.1659
     16 F          64.2471   80.2987   13.9698 F       1  UNL1       -0.1659
     17 F          61.3038   79.9864   13.4811 F       1  UNL1       -0.1659
     18 C          62.3294   89.9928   10.1166 C.3     1  UNL1        0.1687
     19 O          62.3889   91.1458   11.0742 O.3     1  UNL1       -0.3457
     20 C          67.3316   92.7851   14.7674 C.ar    1  UNL1        0.3976
     21 C          65.9597   92.1916   14.8926 C.ar    1  UNL1        0.1780
     22 N          65.3645   92.1061   13.5184 N.ar    1  UNL1       -0.2724
     23 C          66.3685   92.6468   12.5439 C.ar    1  UNL1        0.3059
     24 N          67.5842   93.0664   13.3159 N.ar    1  UNL1       -0.1275
     25 O          66.0460   92.6871   11.0796 O.3     1  UNL1       -0.4450
     26 C          64.7195   92.1868   10.5897 C.3     1  UNL1        0.2399
     27 C          63.7155   91.6461   11.5641 C.3     1  UNL1        0.1818
     28 C          64.0380   91.6058   13.0285 C.3     1  UNL1        0.1440
     29 O          68.7036   94.4565   16.2076 O.2     1  UNL1        0.0432
     30 N          68.2836   93.0506   15.8957 N.pl3   1  UNL1        0.1030
     31 O          68.8157   91.9104   16.7122 O.co2   1  UNL1       -0.5746
@<TRIPOS>UNITY_ATOM_ATTR
30 1
charge 1
31 1
charge -1
@<TRIPOS>BOND
     1    29    30    2
     2    30    31    1
     3    30    20    1
     4    20    21   ar
     5    21    22   ar
     6    22    23   ar
     7    23    24   ar
     8    23    25    1
     9    25    26    1
    10    26    27    1
    11    27    19    1
    12    19    18    1
    13    18     1    1
    14     1     2   ar
    15     2     3   ar
    16     3     4   ar
    17     4     7    1
    18     7     8   ar
    19     8     9   ar
    20     9    10   ar
    21    10    14    1
    22    14    15    1
    23    14    16    1
    24    14    17    1
    25    10    11   ar
    26    11    12   ar
    27    12    13    1
    28     4     5   ar
    29     5     6   ar
    30    27    28    1
    31    24    20   ar
    32     6     1   ar
    33    28    22    1
    34    12     7   ar
@<TRIPOS>MOLECULE
*****
 31 34 0 0 0
SMALL
GASTEIGER

@<TRIPOS>ATOM
      1 C          60.1261   88.9941    8.2593 C.ar    1  UNL1        0.0073
      2 C          59.7506   87.5779    7.9380 C.ar    1  UNL1       -0.0019
      3 C          60.4200   86.4433    8.6554 C.ar    1  UNL1       -0.0002
      4 C          61.4650   86.7250    9.6940 C.ar    1  UNL1        0.0008
      5 C          61.8405   88.1412   10.0152 C.ar    1  UNL1       -0.0002
      6 C          61.1710   89.2758    9.2979 C.ar    1  UNL1       -0.0019
      7 C          62.1345   85.5904   10.4113 C.ar    1  UNL1        0.0106
      8 C          61.9364   85.4155   11.8878 C.ar    1  UNL1        0.0008
      9 C          62.6059   84.2809   12.6051 C.ar    1  UNL1        0.0039
     10 C          63.4734   83.3212   11.8458 C.ar    1  UNL1        0.0723
     11 C          63.6715   83.4961   10.3693 C.ar    1  UNL1        0.0152
     12 C          63.0020   84.6307    9.6520 C.ar    1  UNL1        0.0576
     13 CL         63.2000   84.8057    8.1754 Cl      1  UNL1       -0.0823
     14 C          64.1429   82.1866   12.5631 C.3     1  UNL1        0.4186
     15 F          64.8123   81.0520   13.2804 F       1  UNL1       -0.1659
     16 F          64.8485   83.1659   13.4536 F       1  UNL1       -0.1659
     17 F          63.4372   81.2073   11.6726 F       1  UNL1       -0.1659
     18 C          59.4566   90.1287    7.5420 C.3     1  UNL1        0.1687
     19 O          59.0250   89.9634    6.1150 O.3     1  UNL1       -0.3457
     20 C          62.6670   93.1648    1.9624 C.ar    1  UNL1        0.3976
     21 C          62.7816   92.0499    2.9592 C.ar    1  UNL1        0.1780
     22 N          61.4335   91.8473    3.5852 N.ar    1  UNL1       -0.2724
     23 C          60.4858   92.8370    2.9752 C.ar    1  UNL1        0.3059
     24 N          61.2481   93.6513    1.9723 N.ar    1  UNL1       -0.1275
     25 O          59.0511   92.8690    3.4118 O.3     1  UNL1       -0.4450
     26 C          58.5642   91.9111    4.4584 C.3     1  UNL1        0.2399
     27 C          59.5120   90.9213    5.0684 C.3     1  UNL1        0.1818
     28 C          60.9466   90.8894    4.6318 C.3     1  UNL1        0.1440
     29 O          65.0157   94.2538    1.7439 O.2     1  UNL1        0.0432
     30 N          63.7764   93.6994    1.1061 N.pl3   1  UNL1        0.1030
     31 O          63.6466   93.6797   -0.3882 O.co2   1  UNL1       -0.5746
@<TRIPOS>UNITY_ATOM_ATTR
30 1
charge 1
31 1
charge -1
@<TRIPOS>BOND
     1    29    30    2
     2    30    31    1
     3    30    20    1
     4    20    21   ar
     5    21    22   ar
     6    22    23   ar
     7    23    24   ar
     8    23    25    1
     9    25    26    1
    10    26    27    1
    11    27    19    1
    12    19    18    1
    13    18     1    1
    14     1     2   ar
    15     2     3   ar
    16     3     4   ar
    17     4     7    1
    18     7     8   ar
    19     8     9   ar
    20     9    10   ar
    21    10    14    1
    22    14    15    1
    23    14    16    1
    24    14    17    1
    25    10    11   ar
    26    11    12   ar
    27    12    13    1
    28     4     5   ar
    29     5     6   ar
    30    27    28    1
    31    24    20   ar
    32     6     1   ar
    33    28    22    1
    34    12     7   ar
@<TRIPOS>MOLECULE
*****
 31 34 0 0 0
SMALL
GASTEIGER

@<TRIPOS>ATOM
      1 C          59.3059   88.7716    7.1278 C.ar    1  UNL1        0.0073
      2 C          60.1684   89.3447    8.2130 C.ar    1  UNL1       -0.0019
      3 C          60.9576   88.4323    9.1043 C.ar    1  UNL1       -0.0002
      4 C          60.8843   86.9466    8.9104 C.ar    1  UNL1        0.0008
      5 C          60.0218   86.3735    7.8253 C.ar    1  UNL1       -0.0002
      6 C          59.2326   87.2860    6.9340 C.ar    1  UNL1       -0.0019
      7 C          61.6736   86.0341    9.8018 C.ar    1  UNL1        0.0106
      8 C          61.4466   86.0532   11.2844 C.ar    1  UNL1        0.0008
      9 C          62.2359   85.1407   12.1757 C.ar    1  UNL1        0.0039
     10 C          63.2521   84.2092   11.5844 C.ar    1  UNL1        0.0723
     11 C          63.4791   84.1902   10.1018 C.ar    1  UNL1        0.0152
     12 C          62.6898   85.1027    9.2105 C.ar    1  UNL1        0.0576
     13 CL         62.9168   85.0837    7.7279 Cl      1  UNL1       -0.0823
     14 C          64.0414   83.2967   12.4758 C.3     1  UNL1        0.4186
     15 F          64.8305   82.3843   13.3671 F       1  UNL1       -0.1659
     16 F          65.0581   83.1138   11.3883 F       1  UNL1       -0.1659
     17 F          63.0246   83.4796   13.5632 F       1  UNL1       -0.1659
     18 C          58.5166   89.6841    6.2364 C.3     1  UNL1        0.1687
     19 O          58.9150   91.1233    6.0948 O.3     1  UNL1       -0.3457
     20 C          61.0749   93.7827    0.7079 C.ar    1  UNL1        0.3976
     21 C          59.8127   93.6989    1.5140 C.ar    1  UNL1        0.1780
     22 N          60.0881   92.8499    2.7196 N.ar    1  UNL1       -0.2724
     23 C          61.5205   92.4090    2.6586 C.ar    1  UNL1        0.3059
     24 N          62.1304   92.9855    1.4153 N.ar    1  UNL1       -0.1275
     25 O          62.0845   91.5396    3.7430 O.3     1  UNL1       -0.4450
     26 C          61.2159   91.1110    4.8884 C.3     1  UNL1        0.2399
     27 C          59.7835   91.5519    4.9494 C.3     1  UNL1        0.1818
     28 C          59.2196   92.4213    3.8650 C.3     1  UNL1        0.1440
     29 O          61.0090   93.8411   -1.8886 O.2     1  UNL1        0.0432
     30 N          61.2508   94.5322   -0.5795 N.pl3   1  UNL1        0.1030
     31 O          61.6684   95.9727   -0.5577 O.co2   1  UNL1       -0.5746
@<TRIPOS>UNITY_ATOM_ATTR
30 1
charge 1
31 1
charge -1
@<TRIPOS>BOND
     1    29    30    2
     2    30    31    1
     3    30    20    1
     4    20    21   ar
     5    21    22   ar
     6    22    23   ar
     7    23    24   ar
     8    23    25    1
     9    25    26    1
    10    26    27    1
    11    27    19    1
    12    19    18    1
    13    18     1    1
    14     1     2   ar
    15     2     3   ar
    16     3     4   ar
    17     4     7    1
    18     7     8   ar
    19     8     9   ar
    20     9    10   ar
    21    10    14    1
    22    14    15    1
    23    14    16    1
    24    14    17    1
    25    10    11   ar
    26    11    12   ar
    27    12    13    1
    28     4     5   ar
    29     5     6   ar
    30    27    28    1
    31    24    20   ar
    32     6     1   ar
    33    28    22    1
    34    12     7   ar
@<TRIPOS>MOLECULE
*****
 31 34 0 0 0
SMALL
GASTEIGER

@<TRIPOS>ATOM
      1 C          59.5708   91.2918    4.9873 C.ar    1  UNL1        0.0073
      2 C          61.0056   90.8992    4.7952 C.ar    1  UNL1       -0.0019
      3 C          61.8020   91.4941    3.6718 C.ar    1  UNL1       -0.0002
      4 C          61.1634   92.4816    2.7406 C.ar    1  UNL1        0.0008
      5 C          59.7285   92.8742    2.9327 C.ar    1  UNL1       -0.0002
      6 C          58.9322   92.2793    4.0561 C.ar    1  UNL1       -0.0019
      7 C          61.9598   93.0765    1.6172 C.ar    1  UNL1        0.0106
      8 C          63.1442   93.9469    1.9163 C.ar    1  UNL1        0.0008
      9 C          63.9405   94.5417    0.7930 C.ar    1  UNL1        0.0039
     10 C          63.5525   94.2662   -0.6295 C.ar    1  UNL1        0.0723
     11 C          62.3680   93.3958   -0.9286 C.ar    1  UNL1        0.0152
     12 C          61.5717   92.8009    0.1947 C.ar    1  UNL1        0.0576
     13 CL         60.3872   91.9305   -0.1044 Cl      1  UNL1       -0.0823
     14 C          64.3489   94.8611   -1.7529 C.3     1  UNL1        0.4186
     15 F          65.1452   95.4560   -2.8762 F       1  UNL1       -0.1659
     16 F          64.1399   93.6149   -2.5611 F       1  UNL1       -0.1659
     17 F          64.5579   96.1073   -0.9447 F       1  UNL1       -0.1659
     18 C          58.7744   90.6969    6.1107 C.3     1  UNL1        0.1687
     19 O          58.8070   89.2167    6.3514 O.3     1  UNL1       -0.3457
     20 C          62.4858   88.5959   11.5319 C.ar    1  UNL1        0.3976
     21 C          62.0646   89.6484   10.5497 C.ar    1  UNL1        0.1780
     22 N          61.1368   89.0119    9.5576 N.ar    1  UNL1       -0.2724
     23 C          60.9847   87.5660    9.9266 C.ar    1  UNL1        0.3059
     24 N          61.8184   87.3089   11.1468 N.ar    1  UNL1       -0.1275
     25 O          60.1067   86.6703    9.1040 O.3     1  UNL1       -0.4450
     26 C          59.3808   87.2206    7.9123 C.3     1  UNL1        0.2399
     27 C          59.5329   88.6665    7.5432 C.3     1  UNL1        0.1818
     28 C          60.4109   89.5622    8.3659 C.3     1  UNL1        0.1440
     29 O          63.7714   87.6350   13.5749 O.2     1  UNL1        0.0432
     30 N          63.4119   88.7953   12.6949 N.pl3   1  UNL1        0.1030
     31 O          63.9784   90.1550   12.9780 O.co2   1  UNL1       -0.5746
@<TRIPOS>UNITY_ATOM_ATTR
30 1
charge 1
31 1
charge -1
@<TRIPOS>BOND
     1    29    30    2
     2    30    31    1
     3    30    20    1
     4    20    21   ar
     5    21    22   ar
     6    22    23   ar
     7    23    24   ar
     8    23    25    1
     9    25    26    1
    10    26    27    1
    11    27    19    1
    12    19    18    1
    13    18     1    1
    14     1     2   ar
    15     2     3   ar
    16     3     4   ar
    17     4     7    1
    18     7     8   ar
    19     8     9   ar
    20     9    10   ar
    21    10    14    1
    22    14    15    1
    23    14    16    1
    24    14    17    1
    25    10    11   ar
    26    11    12   ar
    27    12    13    1
    28     4     5   ar
    29     5     6   ar
    30    27    28    1
    31    24    20   ar
    32     6     1   ar
    33    28    22    1
    34    12     7   ar
@<TRIPOS>MOLECULE
*****
 31 34 0 0 0
SMALL
GASTEIGER

@<TRIPOS>ATOM
      1 C          59.7436   91.2590    4.9140 C.ar    1  UNL1        0.0073
      2 C          61.1750   90.8598    4.7095 C.ar    1  UNL1       -0.0019
      3 C          61.9818   91.4951    3.6162 C.ar    1  UNL1       -0.0002
      4 C          61.3574   92.5295    2.7274 C.ar    1  UNL1        0.0008
      5 C          59.9260   92.9286    2.9318 C.ar    1  UNL1       -0.0002
      6 C          59.1191   92.2934    4.0251 C.ar    1  UNL1       -0.0019
      7 C          62.1643   93.1647    1.6340 C.ar    1  UNL1        0.0106
      8 C          63.3525   94.0141    1.9755 C.ar    1  UNL1        0.0008
      9 C          64.1594   94.6493    0.8822 C.ar    1  UNL1        0.0039
     10 C          63.7781   94.4351   -0.5527 C.ar    1  UNL1        0.0723
     11 C          62.5899   93.5856   -0.8941 C.ar    1  UNL1        0.0152
     12 C          61.7830   92.9504    0.1992 C.ar    1  UNL1        0.0576
     13 CL         60.5948   92.1009   -0.1423 Cl      1  UNL1       -0.0823
     14 C          64.5850   95.0703   -1.6460 C.3     1  UNL1        0.4186
     15 F          65.3919   95.7055   -2.7393 F       1  UNL1       -0.1659
     16 F          65.2157   95.9923   -0.6449 F       1  UNL1       -0.1659
     17 F          63.9544   94.1484   -2.6471 F       1  UNL1       -0.1659
     18 C          58.9367   90.6237    6.0074 C.3     1  UNL1        0.1687
     19 O          59.1438   89.1780    6.3493 O.3     1  UNL1       -0.3457
     20 C          61.7837   85.9278   11.1684 C.ar    1  UNL1        0.3976
     21 C          61.2966   85.6995    9.7682 C.ar    1  UNL1        0.1780
     22 N          60.7802   87.0044    9.2384 N.ar    1  UNL1       -0.2724
     23 C          60.9481   88.0392   10.3113 C.ar    1  UNL1        0.3059
     24 N          61.5683   87.3738   11.5040 N.ar    1  UNL1       -0.1275
     25 O          60.5146   89.4536   10.0634 O.3     1  UNL1       -0.4450
     26 C          59.9132   89.8332    8.7428 C.3     1  UNL1        0.2399
     27 C          59.7453   88.7984    7.6700 C.3     1  UNL1        0.1818
     28 C          60.1788   87.3839    7.9178 C.3     1  UNL1        0.1440
     29 O          62.9162   83.6133   11.5008 O.2     1  UNL1        0.0432
     30 N          62.3812   84.8920   12.0740 N.pl3   1  UNL1        0.1030
     31 O          62.4437   85.1349   13.5529 O.co2   1  UNL1       -0.5746
@<TRIPOS>UNITY_ATOM_ATTR
30 1
charge 1
31 1
charge -1
@<TRIPOS>BOND
     1    29    30    2
     2    30    31    1
     3    30    20    1
     4    20    21   ar
     5    21    22   ar
     6    22    23   ar
     7    23    24   ar
     8    23    25    1
     9    25    26    1
    10    26    27    1
    11    27    19    1
    12    19    18    1
    13    18     1    1
    14     1     2   ar
    15     2     3   ar
    16     3     4   ar
    17     4     7    1
    18     7     8   ar
    19     8     9   ar
    20     9    10   ar
    21    10    14    1
    22    14    15    1
    23    14    16    1
    24    14    17    1
    25    10    11   ar
    26    11    12   ar
    27    12    13    1
    28     4     5   ar
    29     5     6   ar
    30    27    28    1
    31    24    20   ar
    32     6     1   ar
    33    28    22    1
    34    12     7   ar
