@<TRIPOS>MOLECULE
*****
 25 28 0 0 0
SMALL
GASTEIGER

@<TRIPOS>ATOM
      1 N          60.1322   89.3425    8.6268 N.pl3   1  UNL1       -0.3130
      2 H          59.7197   90.0533    8.0848 H       1  UNL1        0.1487
      3 C          60.7669   89.6765    9.9442 C.ar    1  UNL1        0.1599
      4 N          62.1648   90.1813   10.1466 N.ar    1  UNL1       -0.2227
      5 C          62.3770   90.3812   11.6180 C.ar    1  UNL1        0.1073
      6 C          61.1102   89.9999   12.3250 C.ar    1  UNL1        0.0588
      7 S          60.1151   89.5643   11.2906 S.2     1  UNL1       -0.0512
      8 C          63.6351   90.8755   12.2683 C.ar    1  UNL1        0.0995
      9 C          64.0528   90.3327   13.6028 C.ar    1  UNL1        0.0207
     10 C          65.3109   90.8271   14.2531 C.ar    1  UNL1        0.0032
     11 C          66.1513   91.8643   13.5688 C.ar    1  UNL1        0.0207
     12 C          65.7334   92.4071   12.2343 C.ar    1  UNL1        0.0989
     13 N          64.4754   91.9127   11.5841 N.ar    1  UNL1       -0.2423
     14 C          60.1260   87.9254    8.1352 C.3     1  UNL1        0.0887
     15 C          63.8799   83.3778   11.1158 C.2     1  UNL1        0.2251
     16 O          64.9363   82.6504   10.3381 O.2     1  UNL1       -0.2749
     17 N          63.0277   84.4102   10.4391 N.am    1  UNL1       -0.2795
     18 C          63.1155   84.8197    8.9988 C.3     1  UNL1        0.0935
     19 C          62.0801   85.8770    8.7535 C.3     1  UNL1        0.0233
     20 C          60.9782   86.8930    8.8118 C.3     1  UNL1        0.0230
     21 C          61.3524   86.1209   10.0422 C.3     1  UNL1        0.0233
     22 C          61.9380   85.2144   11.0840 C.3     1  UNL1        0.0935
     23 C          62.6312   82.0813   12.9892 C.3     1  UNL1        0.0096
     24 C          63.6758   83.0729   12.5702 C.3     1  UNL1        0.0767
     25 C          64.5163   83.7596   13.6057 C.3     1  UNL1        0.0096
@<TRIPOS>BOND
     1    23    24    1
     2    24    25    1
     3    24    15    1
     4    15    16    2
     5    15    17   am
     6    17    18    1
     7    19    18    1
     8    19    20    1
     9    20    14    1
    10    14     1    1
    11     1     3    1
    12     3     4   ar
    13     4     5   ar
    14     5     8    1
    15     8     9   ar
    16     9    10   ar
    17    10    11   ar
    18    11    12   ar
    19    12    13   ar
    20     5     6   ar
    21     6     7   ar
    22    20    21    1
    23    21    22    1
    24    22    17    1
    25    21    19    1
    26     7     3   ar
    27    13     8   ar
    28     1     2    1
@<TRIPOS>MOLECULE
*****
 25 28 0 0 0
SMALL
GASTEIGER

@<TRIPOS>ATOM
      1 N          60.2686   88.7640   10.1754 N.pl3   1  UNL1       -0.3130
      2 H          59.5990   88.8496    9.4587 H       1  UNL1        0.1487
      3 C          61.0546   87.4946   10.3198 C.ar    1  UNL1        0.1599
      4 N          61.2131   86.6940   11.5782 N.ar    1  UNL1       -0.2227
      5 C          62.0767   85.5076   11.2672 C.ar    1  UNL1        0.1073
      6 C          62.4519   85.5750    9.8165 C.ar    1  UNL1        0.0588
      7 S          61.8202   86.8030    9.2308 S.2     1  UNL1       -0.0512
      8 C          62.4921   84.4410   12.2367 C.ar    1  UNL1        0.0995
      9 C          62.8253   83.0652   11.7407 C.ar    1  UNL1        0.0207
     10 C          63.2408   81.9986   12.7102 C.ar    1  UNL1        0.0032
     11 C          63.3229   82.3079   14.1757 C.ar    1  UNL1        0.0207
     12 C          62.9897   83.6839   14.6716 C.ar    1  UNL1        0.0989
     13 N          62.5743   84.7504   13.7021 N.ar    1  UNL1       -0.2423
     14 C          60.5026   89.9029   11.1230 C.3     1  UNL1        0.0887
     15 C          66.4952   92.6495   11.5715 C.2     1  UNL1        0.2251
     16 O          67.1839   92.7339   12.9013 O.2     1  UNL1       -0.2749
     17 N          65.1348   92.0260   11.4697 N.am    1  UNL1       -0.2795
     18 C          64.3430   91.4471   12.6046 C.3     1  UNL1        0.0935
     19 C          63.0461   90.9352   12.0514 C.3     1  UNL1        0.0233
     20 C          61.8630   90.5265   11.2248 C.3     1  UNL1        0.0230
     21 C          63.0363   91.1977   10.5746 C.3     1  UNL1        0.0233
     22 C          64.3272   91.8718   10.2151 C.3     1  UNL1        0.0935
     23 C          66.8628   94.5796    9.8716 C.3     1  UNL1        0.0096
     24 C          67.1670   93.1886   10.3435 C.3     1  UNL1        0.0767
     25 C          68.1429   92.3366    9.5872 C.3     1  UNL1        0.0096
@<TRIPOS>BOND
     1    23    24    1
     2    24    25    1
     3    24    15    1
     4    15    16    2
     5    15    17   am
     6    17    18    1
     7    19    18    1
     8    19    20    1
     9    20    14    1
    10    14     1    1
    11     1     3    1
    12     3     4   ar
    13     4     5   ar
    14     5     8    1
    15     8     9   ar
    16     9    10   ar
    17    10    11   ar
    18    11    12   ar
    19    12    13   ar
    20     5     6   ar
    21     6     7   ar
    22    20    21    1
    23    21    22    1
    24    22    17    1
    25    21    19    1
    26     7     3   ar
    27    13     8   ar
    28     1     2    1
@<TRIPOS>MOLECULE
*****
 25 28 0 0 0
SMALL
GASTEIGER

@<TRIPOS>ATOM
      1 N          63.2334   90.7364   14.0134 N.pl3   1  UNL1       -0.3130
      2 H          62.7963   91.4887   14.4741 H       1  UNL1        0.1487
      3 C          62.9306   90.4629   12.5699 C.ar    1  UNL1        0.1599
      4 N          62.0059   89.4032   12.0484 N.ar    1  UNL1       -0.2227
      5 C          62.0033   89.4865   10.5507 C.ar    1  UNL1        0.1073
      6 C          62.9264   90.5976   10.1466 C.ar    1  UNL1        0.0588
      7 S          63.4996   91.2011   11.3945 S.2     1  UNL1       -0.0512
      8 C          61.2158   88.6122    9.6204 C.ar    1  UNL1        0.0995
      9 C          61.5522   87.1558    9.4951 C.ar    1  UNL1        0.0207
     10 C          60.7647   86.2815    8.5648 C.ar    1  UNL1        0.0032
     11 C          59.6408   86.8636    7.7598 C.ar    1  UNL1        0.0207
     12 C          59.3044   88.3201    7.8851 C.ar    1  UNL1        0.0989
     13 N          60.0919   89.1944    8.8154 N.ar    1  UNL1       -0.2423
     14 C          64.2020   89.8636   14.7550 C.3     1  UNL1        0.0887
     15 C          63.9434   83.2992   14.0495 C.2     1  UNL1        0.2251
     16 O          64.2676   82.4067   15.2107 O.2     1  UNL1       -0.2749
     17 N          64.0021   84.7894   14.2097 N.am    1  UNL1       -0.2795
     18 C          64.3669   85.5278   15.4634 C.3     1  UNL1        0.0935
     19 C          64.2966   86.9977   15.1728 C.3     1  UNL1        0.0233
     20 C          64.1433   88.3733   14.5948 C.3     1  UNL1        0.0230
     21 C          63.8884   87.1678   13.7395 C.3     1  UNL1        0.0233
     22 C          63.7064   85.8030   13.1442 C.3     1  UNL1        0.0935
     23 C          64.4619   82.8670   11.5407 C.3     1  UNL1        0.0096
     24 C          63.5606   82.7014   12.7282 C.3     1  UNL1        0.0767
     25 C          62.2764   81.9378   12.5943 C.3     1  UNL1        0.0096
@<TRIPOS>BOND
     1    23    24    1
     2    24    25    1
     3    24    15    1
     4    15    16    2
     5    15    17   am
     6    17    18    1
     7    19    18    1
     8    19    20    1
     9    20    14    1
    10    14     1    1
    11     1     3    1
    12     3     4   ar
    13     4     5   ar
    14     5     8    1
    15     8     9   ar
    16     9    10   ar
    17    10    11   ar
    18    11    12   ar
    19    12    13   ar
    20     5     6   ar
    21     6     7   ar
    22    20    21    1
    23    21    22    1
    24    22    17    1
    25    21    19    1
    26     7     3   ar
    27    13     8   ar
    28     1     2    1
@<TRIPOS>MOLECULE
*****
 25 28 0 0 0
SMALL
GASTEIGER

@<TRIPOS>ATOM
      1 N          60.6060   88.3562   10.4386 N.pl3   1  UNL1       -0.3130
      2 H          59.6874   88.3982   10.7902 H       1  UNL1        0.1487
      3 C          61.3609   87.0603   10.4659 C.ar    1  UNL1        0.1599
      4 N          61.5059   86.1491   11.6485 N.ar    1  UNL1       -0.2227
      5 C          62.3380   84.9737   11.2288 C.ar    1  UNL1        0.1073
      6 C          62.7073   85.1585    9.7868 C.ar    1  UNL1        0.0588
      7 S          62.1035   86.4481    9.3152 S.2     1  UNL1       -0.0512
      8 C          62.7318   83.8167   12.0984 C.ar    1  UNL1        0.0995
      9 C          62.6850   82.4196   11.5545 C.ar    1  UNL1        0.0207
     10 C          63.0787   81.2626   12.4242 C.ar    1  UNL1        0.0032
     11 C          63.5193   81.5027   13.8378 C.ar    1  UNL1        0.0207
     12 C          63.5660   82.8999   14.3818 C.ar    1  UNL1        0.0989
     13 N          63.1723   84.0569   13.5121 N.ar    1  UNL1       -0.2423
     14 C          61.2506   89.5880    9.8757 C.3     1  UNL1        0.0887
     15 C          66.1338   92.5668   13.1829 C.2     1  UNL1        0.2251
     16 O          66.9373   93.6472   12.5218 O.2     1  UNL1       -0.2749
     17 N          65.0252   91.8905   12.4321 N.am    1  UNL1       -0.2795
     18 C          64.6064   92.1865   11.0225 C.3     1  UNL1        0.0935
     19 C          63.4631   91.2785   10.6783 C.3     1  UNL1        0.0233
     20 C          62.3592   90.2643   10.6265 C.3     1  UNL1        0.0230
     21 C          63.1754   90.4213   11.8751 C.3     1  UNL1        0.0233
     22 C          64.1408   90.7996   12.9590 C.3     1  UNL1        0.0935
     23 C          67.7671   91.5510   14.9295 C.3     1  UNL1        0.0096
     24 C          66.4389   92.1626   14.5948 C.3     1  UNL1        0.0767
     25 C          65.4159   92.3699   15.6721 C.3     1  UNL1        0.0096
@<TRIPOS>BOND
     1    23    24    1
     2    24    25    1
     3    24    15    1
     4    15    16    2
     5    15    17   am
     6    17    18    1
     7    19    18    1
     8    19    20    1
     9    20    14    1
    10    14     1    1
    11     1     3    1
    12     3     4   ar
    13     4     5   ar
    14     5     8    1
    15     8     9   ar
    16     9    10   ar
    17    10    11   ar
    18    11    12   ar
    19    12    13   ar
    20     5     6   ar
    21     6     7   ar
    22    20    21    1
    23    21    22    1
    24    22    17    1
    25    21    19    1
    26     7     3   ar
    27    13     8   ar
    28     1     2    1
@<TRIPOS>MOLECULE
*****
 25 28 0 0 0
SMALL
GASTEIGER

@<TRIPOS>ATOM
      1 N          65.0059   82.4379   11.9965 N.pl3   1  UNL1       -0.3130
      2 H          65.7064   81.7580   12.1239 H       1  UNL1        0.1487
      3 C          64.3286   83.0491   13.1871 C.ar    1  UNL1        0.1599
      4 N          64.4571   84.4734   13.6399 N.ar    1  UNL1       -0.2227
      5 C          63.6118   84.6479   14.8667 C.ar    1  UNL1        0.1073
      6 C          62.9607   83.3315   15.1721 C.ar    1  UNL1        0.0588
      7 S          63.4037   82.3434   14.1341 S.2     1  UNL1       -0.0512
      8 C          63.4464   85.9161   15.6504 C.ar    1  UNL1        0.0995
      9 C          62.8914   85.8701   17.0432 C.ar    1  UNL1        0.0207
     10 C          62.7261   87.1384   17.8270 C.ar    1  UNL1        0.0032
     11 C          63.1158   88.4526   17.2179 C.ar    1  UNL1        0.0207
     12 C          63.6709   88.4986   15.8251 C.ar    1  UNL1        0.0989
     13 N          63.8362   87.2303   15.0414 N.ar    1  UNL1       -0.2423
     14 C          64.6159   82.8626   10.6118 C.3     1  UNL1        0.0887
     15 C          60.0855   87.5962    9.7607 C.2     1  UNL1        0.2251
     16 O          59.4670   88.2654   10.9522 O.2     1  UNL1       -0.2749
     17 N          61.1140   86.5216    9.9539 N.am    1  UNL1       -0.2795
     18 C          61.6212   86.0131   11.2708 C.3     1  UNL1        0.0935
     19 C          62.6366   84.9440   10.9949 C.3     1  UNL1        0.0233
     20 C          63.5874   83.9372   10.4186 C.3     1  UNL1        0.0230
     21 C          62.7569   84.7918    9.5075 C.3     1  UNL1        0.0233
     22 C          61.8159   85.7668    8.8642 C.3     1  UNL1        0.0935
     23 C          58.9640   87.0244    7.4880 C.3     1  UNL1        0.0096
     24 C          59.6755   88.0017    8.3760 C.3     1  UNL1        0.0767
     25 C          59.9770   89.3847    7.8792 C.3     1  UNL1        0.0096
@<TRIPOS>BOND
     1    23    24    1
     2    24    25    1
     3    24    15    1
     4    15    16    2
     5    15    17   am
     6    17    18    1
     7    19    18    1
     8    19    20    1
     9    20    14    1
    10    14     1    1
    11     1     3    1
    12     3     4   ar
    13     4     5   ar
    14     5     8    1
    15     8     9   ar
    16     9    10   ar
    17    10    11   ar
    18    11    12   ar
    19    12    13   ar
    20     5     6   ar
    21     6     7   ar
    22    20    21    1
    23    21    22    1
    24    22    17    1
    25    21    19    1
    26     7     3   ar
    27    13     8   ar
    28     1     2    1
@<TRIPOS>MOLECULE
*****
 25 28 0 0 0
SMALL
GASTEIGER

@<TRIPOS>ATOM
      1 N          63.6434   83.2013   14.6551 N.pl3   1  UNL1       -0.3130
      2 H          63.9506   82.2702   14.7442 H       1  UNL1        0.1487
      3 C          63.3255   83.7598   13.2997 C.ar    1  UNL1        0.1599
      4 N          62.3222   84.8344   13.0020 N.ar    1  UNL1       -0.2227
      5 C          62.3316   85.0804   11.5223 C.ar    1  UNL1        0.1073
      6 C          63.3408   84.1578   10.9055 C.ar    1  UNL1        0.0588
      7 S          63.9550   83.3416   12.0039 S.2     1  UNL1       -0.0512
      8 C          61.4813   86.0744   10.7884 C.ar    1  UNL1        0.0995
      9 C          61.2556   85.9238    9.3132 C.ar    1  UNL1        0.0207
     10 C          60.4052   86.9179    8.5791 C.ar    1  UNL1        0.0032
     11 C          59.7806   88.0627    9.3204 C.ar    1  UNL1        0.0207
     12 C          60.0064   88.2133   10.7957 C.ar    1  UNL1        0.0989
     13 N          60.8568   87.2192   11.5297 N.ar    1  UNL1       -0.2423
     14 C          63.4934   84.0615   15.8747 C.3     1  UNL1        0.0887
     15 C          64.0908   90.6234   15.3833 C.2     1  UNL1        0.2251
     16 O          63.4294   91.5144   16.3925 O.2     1  UNL1       -0.2749
     17 N          63.9552   89.1337   15.4949 N.am    1  UNL1       -0.2795
     18 C          63.1942   88.3946   16.5554 C.3     1  UNL1        0.0935
     19 C          63.3254   86.9257   16.2814 C.3     1  UNL1        0.0233
     20 C          63.6290   85.5512   15.7631 C.3     1  UNL1        0.0230
     21 C          64.1675   86.7569   15.0516 C.3     1  UNL1        0.0233
     22 C          64.5567   88.1215   14.5655 C.3     1  UNL1        0.0935
     23 C          66.3363   91.5545   14.4664 C.3     1  UNL1        0.0096
     24 C          64.8879   91.2221   14.2625 C.3     1  UNL1        0.0767
     25 C          64.2365   91.4884   12.9378 C.3     1  UNL1        0.0096
@<TRIPOS>BOND
     1    23    24    1
     2    24    25    1
     3    24    15    1
     4    15    16    2
     5    15    17   am
     6    17    18    1
     7    19    18    1
     8    19    20    1
     9    20    14    1
    10    14     1    1
    11     1     3    1
    12     3     4   ar
    13     4     5   ar
    14     5     8    1
    15     8     9   ar
    16     9    10   ar
    17    10    11   ar
    18    11    12   ar
    19    12    13   ar
    20     5     6   ar
    21     6     7   ar
    22    20    21    1
    23    21    22    1
    24    22    17    1
    25    21    19    1
    26     7     3   ar
    27    13     8   ar
    28     1     2    1
@<TRIPOS>MOLECULE
*****
 25 28 0 0 0
SMALL
GASTEIGER

@<TRIPOS>ATOM
      1 N          61.1689   89.8454   11.1886 N.pl3   1  UNL1       -0.3130
      2 H          60.3752   90.0723   11.7250 H       1  UNL1        0.1487
      3 C          62.4679   90.5540   11.4346 C.ar    1  UNL1        0.1599
      4 N          63.1636   90.6862   12.7569 N.ar    1  UNL1       -0.2227
      5 C          64.4249   91.4688   12.5410 C.ar    1  UNL1        0.1073
      6 C          64.5089   91.8202   11.0852 C.ar    1  UNL1        0.0588
      7 S          63.2994   91.2549   10.4013 S.2     1  UNL1       -0.0512
      8 C          65.4265   91.8355   13.5956 C.ar    1  UNL1        0.0995
      9 C          66.8855   91.9017   13.2537 C.ar    1  UNL1        0.0207
     10 C          67.8871   92.2685   14.3085 C.ar    1  UNL1        0.0032
     11 C          67.4296   92.5690   15.7051 C.ar    1  UNL1        0.0207
     12 C          65.9705   92.5027   16.0469 C.ar    1  UNL1        0.0989
     13 N          64.9690   92.1360   14.9922 N.ar    1  UNL1       -0.2423
     14 C          61.0793   88.7911   10.1255 C.3     1  UNL1        0.0887
     15 C          63.6397   82.7947   11.1950 C.2     1  UNL1        0.2251
     16 O          64.3740   82.0858   10.0959 O.2     1  UNL1       -0.2749
     17 N          63.0584   84.1560   10.9522 N.am    1  UNL1       -0.2795
     18 C          63.1312   84.9298    9.6693 C.3     1  UNL1        0.0935
     19 C          62.4201   86.2346    9.8739 C.3     1  UNL1        0.0233
     20 C          61.6606   87.4298   10.3683 C.3     1  UNL1        0.0230
     21 C          61.9078   86.2672   11.2833 C.3     1  UNL1        0.0233
     22 C          62.3023   84.9826   11.9497 C.3     1  UNL1        0.0935
     23 C          64.1346   82.7511   13.7451 C.3     1  UNL1        0.0096
     24 C          63.4867   82.1423   12.5370 C.3     1  UNL1        0.0767
     25 C          62.6857   80.8811   12.6709 C.3     1  UNL1        0.0096
@<TRIPOS>BOND
     1    23    24    1
     2    24    25    1
     3    24    15    1
     4    15    16    2
     5    15    17   am
     6    17    18    1
     7    19    18    1
     8    19    20    1
     9    20    14    1
    10    14     1    1
    11     1     3    1
    12     3     4   ar
    13     4     5   ar
    14     5     8    1
    15     8     9   ar
    16     9    10   ar
    17    10    11   ar
    18    11    12   ar
    19    12    13   ar
    20     5     6   ar
    21     6     7   ar
    22    20    21    1
    23    21    22    1
    24    22    17    1
    25    21    19    1
    26     7     3   ar
    27    13     8   ar
    28     1     2    1
@<TRIPOS>MOLECULE
*****
 25 28 0 0 0
SMALL
GASTEIGER

@<TRIPOS>ATOM
      1 N          64.7305   82.5952   11.4264 N.pl3   1  UNL1       -0.3130
      2 H          65.5638   82.0716   11.4010 H       1  UNL1        0.1487
      3 C          64.1606   83.0347   12.7425 C.ar    1  UNL1        0.1599
      4 N          64.2061   84.4254   13.3026 N.ar    1  UNL1       -0.2227
      5 C          63.5189   84.4109   14.6359 C.ar    1  UNL1        0.1073
      6 C          63.0486   83.0112   14.8997 C.ar    1  UNL1        0.0588
      7 S          63.4452   82.1606   13.7295 S.2     1  UNL1       -0.0512
      8 C          63.3342   85.5891   15.5455 C.ar    1  UNL1        0.0995
      9 C          63.9502   86.9111   15.1950 C.ar    1  UNL1        0.0207
     10 C          63.7655   88.0895   16.1047 C.ar    1  UNL1        0.0032
     11 C          62.9649   87.9457   17.3651 C.ar    1  UNL1        0.0207
     12 C          62.3490   86.6236   17.7156 C.ar    1  UNL1        0.0989
     13 N          62.5337   85.4454   16.8059 N.ar    1  UNL1       -0.2423
     14 C          64.0307   82.9536   10.1489 C.3     1  UNL1        0.0887
     15 C          60.7945   88.6926    9.6523 C.2     1  UNL1        0.2251
     16 O          60.1479   89.0792    8.3552 O.2     1  UNL1       -0.2749
     17 N          61.5292   87.3897    9.7650 N.am    1  UNL1       -0.2795
     18 C          61.7002   86.3765    8.6723 C.3     1  UNL1        0.0935
     19 C          62.4986   85.2318    9.2222 C.3     1  UNL1        0.0233
     20 C          63.2960   84.2564   10.0362 C.3     1  UNL1        0.0230
     21 C          62.8211   85.5377   10.6549 C.3     1  UNL1        0.0233
     22 C          62.2220   86.8713   10.9903 C.3     1  UNL1        0.0935
     23 C          59.5092   89.5558   11.7386 C.3     1  UNL1        0.0096
     24 C          60.7065   89.6089   10.8366 C.3     1  UNL1        0.0767
     25 C          61.8158   90.5784   11.1189 C.3     1  UNL1        0.0096
@<TRIPOS>BOND
     1    23    24    1
     2    24    25    1
     3    24    15    1
     4    15    16    2
     5    15    17   am
     6    17    18    1
     7    19    18    1
     8    19    20    1
     9    20    14    1
    10    14     1    1
    11     1     3    1
    12     3     4   ar
    13     4     5   ar
    14     5     8    1
    15     8     9   ar
    16     9    10   ar
    17    10    11   ar
    18    11    12   ar
    19    12    13   ar
    20     5     6   ar
    21     6     7   ar
    22    20    21    1
    23    21    22    1
    24    22    17    1
    25    21    19    1
    26     7     3   ar
    27    13     8   ar
    28     1     2    1
@<TRIPOS>MOLECULE
*****
 25 28 0 0 0
SMALL
GASTEIGER

@<TRIPOS>ATOM
      1 N          60.5502   87.5137    8.5362 N.pl3   1  UNL1       -0.3130
      2 H          59.8428   87.6404    7.8633 H       1  UNL1        0.1487
      3 C          60.9236   88.6406    9.4531 C.ar    1  UNL1        0.1599
      4 N          62.3182   89.0549    9.8184 N.ar    1  UNL1       -0.2227
      5 C          62.2246   90.2214   10.7567 C.ar    1  UNL1        0.1073
      6 C          60.7721   90.5282   10.9713 C.ar    1  UNL1        0.0588
      7 S          59.9680   89.5512   10.1657 S.2     1  UNL1       -0.0512
      8 C          63.3804   90.9528   11.3722 C.ar    1  UNL1        0.0995
      9 C          64.1830   91.9159   10.5487 C.ar    1  UNL1        0.0207
     10 C          65.3389   92.6473   11.1643 C.ar    1  UNL1        0.0032
     11 C          65.6922   92.4156   12.6036 C.ar    1  UNL1        0.0207
     12 C          64.8897   91.4524   13.4272 C.ar    1  UNL1        0.0989
     13 N          63.7338   90.7210   12.8115 N.ar    1  UNL1       -0.2423
     14 C          61.2544   86.1938    8.6446 C.3     1  UNL1        0.0887
     15 C          63.7545   84.2497   14.4434 C.2     1  UNL1        0.2251
     16 O          63.8013   82.7908   14.7887 O.2     1  UNL1       -0.2749
     17 N          63.1870   84.6911   13.1270 N.am    1  UNL1       -0.2795
     18 C          62.6319   83.7937   12.0608 C.3     1  UNL1        0.0935
     19 C          62.1766   84.6553   10.9205 C.3     1  UNL1        0.0233
     20 C          61.8220   85.7525    9.9611 C.3     1  UNL1        0.0230
     21 C          62.4504   86.0852   11.2818 C.3     1  UNL1        0.0233
     22 C          63.0748   86.1073   12.6455 C.3     1  UNL1        0.0935
     23 C          65.6114   85.9091   15.1840 C.3     1  UNL1        0.0096
     24 C          64.2754   85.2673   15.4146 C.3     1  UNL1        0.0767
     25 C          63.4602   85.6431   16.6164 C.3     1  UNL1        0.0096
@<TRIPOS>BOND
     1    23    24    1
     2    24    25    1
     3    24    15    1
     4    15    16    2
     5    15    17   am
     6    17    18    1
     7    19    18    1
     8    19    20    1
     9    20    14    1
    10    14     1    1
    11     1     3    1
    12     3     4   ar
    13     4     5   ar
    14     5     8    1
    15     8     9   ar
    16     9    10   ar
    17    10    11   ar
    18    11    12   ar
    19    12    13   ar
    20     5     6   ar
    21     6     7   ar
    22    20    21    1
    23    21    22    1
    24    22    17    1
    25    21    19    1
    26     7     3   ar
    27    13     8   ar
    28     1     2    1
