@<TRIPOS>MOLECULE
*****
 15 16 0 0 0
SMALL
GASTEIGER

@<TRIPOS>ATOM
      1 C          65.2623   91.8372   13.4026 C.ar    1  UNL1        0.0232
      2 C          64.2371   91.3815   12.4068 C.ar    1  UNL1        0.0040
      3 C          63.6048   90.1274   12.9336 C.ar    1  UNL1        0.0067
      4 C          64.2390   89.8082   14.2549 C.ar    1  UNL1        0.0307
      5 S          65.2634   90.8648   14.5447 S.2     1  UNL1       -0.0899
      6 C          63.9071   88.6376   15.1324 C.ar    1  UNL1        0.0252
      7 C          63.2299   88.8581   16.4525 C.ar    1  UNL1        0.0036
      8 C          62.8980   87.6876   17.3298 C.ar    1  UNL1        0.0207
      9 C          63.2434   86.2967   16.8870 C.ar    1  UNL1        0.0989
     10 N          63.9206   86.0762   15.5669 N.ar    1  UNL1       -0.2423
     11 C          64.2525   87.2467   14.6896 C.ar    1  UNL1        0.0993
     12 C          66.1333   93.0520   13.2780 C.3     1  UNL1        0.1022
     13 C          67.6012   93.6057   15.3490 C.3     1  UNL1        0.0861
     14 N          66.4129   93.9011   14.4825 N.3     1  UNL1       -0.2922
     15 H          66.5227   94.8587   14.1487 H       1  UNL1        0.1236
@<TRIPOS>BOND
     1    13    14    1
     2    14    12    1
     3    12     1    1
     4     1     2   ar
     5     2     3   ar
     6     3     4   ar
     7     4     6    1
     8     6     7   ar
     9     7     8   ar
    10     8     9   ar
    11     9    10   ar
    12    10    11   ar
    13     4     5   ar
    14     5     1   ar
    15    11     6   ar
    16    14    15    1
@<TRIPOS>MOLECULE
*****
 15 16 0 0 0
SMALL
GASTEIGER

@<TRIPOS>ATOM
      1 C          63.6441   90.5643   12.3668 C.ar    1  UNL1        0.0232
      2 C          63.7207   91.4827   11.1833 C.ar    1  UNL1        0.0040
      3 C          62.9605   90.8500   10.0556 C.ar    1  UNL1        0.0067
      4 C          62.4141   89.5405   10.5422 C.ar    1  UNL1        0.0307
      5 S          62.8365   89.3640   11.9705 S.2     1  UNL1       -0.0899
      6 C          61.5898   88.5767    9.7409 C.ar    1  UNL1        0.0252
      7 C          61.9722   87.1273    9.6869 C.ar    1  UNL1        0.0036
      8 C          61.1479   86.1637    8.8856 C.ar    1  UNL1        0.0207
      9 C          59.9413   86.6495    8.1385 C.ar    1  UNL1        0.0989
     10 N          59.5590   88.0989    8.1926 N.ar    1  UNL1       -0.2423
     11 C          60.3832   89.0625    8.9938 C.ar    1  UNL1        0.0993
     12 C          64.2659   90.8042   13.7106 C.3     1  UNL1        0.1022
     13 C          63.3845   89.9765   16.0103 C.3     1  UNL1        0.0861
     14 N          63.3947   91.0020   14.9156 N.3     1  UNL1       -0.2922
     15 H          63.6774   91.8846   15.3416 H       1  UNL1        0.1236
@<TRIPOS>BOND
     1    13    14    1
     2    14    12    1
     3    12     1    1
     4     1     2   ar
     5     2     3   ar
     6     3     4   ar
     7     4     6    1
     8     6     7   ar
     9     7     8   ar
    10     8     9   ar
    11     9    10   ar
    12    10    11   ar
    13     4     5   ar
    14     5     1   ar
    15    11     6   ar
    16    14    15    1
@<TRIPOS>MOLECULE
*****
 15 16 0 0 0
SMALL
GASTEIGER

@<TRIPOS>ATOM
      1 C          64.5459   90.8922   13.5670 C.ar    1  UNL1        0.0232
      2 C          65.7552   91.1496   14.4165 C.ar    1  UNL1        0.0040
      3 C          66.6283   92.1323   13.6941 C.ar    1  UNL1        0.0067
      4 C          65.9588   92.4822   12.3982 C.ar    1  UNL1        0.0307
      5 S          64.6718   91.7158   12.3197 S.2     1  UNL1       -0.0899
      6 C          66.4841   93.4318   11.3627 C.ar    1  UNL1        0.0252
      7 C          67.2293   92.9058   10.1719 C.ar    1  UNL1        0.0036
      8 C          67.7545   93.8555    9.1364 C.ar    1  UNL1        0.0207
      9 C          67.5346   95.3311    9.2917 C.ar    1  UNL1        0.0989
     10 N          66.7894   95.8571   10.4825 N.ar    1  UNL1       -0.2423
     11 C          66.2642   94.9075   11.5180 C.ar    1  UNL1        0.0993
     12 C          63.4102   89.9726   13.9055 C.3     1  UNL1        0.1022
     13 C          63.1599   89.2643   16.3926 C.3     1  UNL1        0.0861
     14 N          62.7130   90.0970   15.2278 N.3     1  UNL1       -0.2922
     15 H          62.7963   91.0725   15.5140 H       1  UNL1        0.1236
@<TRIPOS>BOND
     1    13    14    1
     2    14    12    1
     3    12     1    1
     4     1     2   ar
     5     2     3   ar
     6     3     4   ar
     7     4     6    1
     8     6     7   ar
     9     7     8   ar
    10     8     9   ar
    11     9    10   ar
    12    10    11   ar
    13     4     5   ar
    14     5     1   ar
    15    11     6   ar
    16    14    15    1
@<TRIPOS>MOLECULE
*****
 15 16 0 0 0
SMALL
GASTEIGER

@<TRIPOS>ATOM
      1 C          63.3353   84.0448   11.5002 C.ar    1  UNL1        0.0232
      2 C          63.8502   83.7058   10.1327 C.ar    1  UNL1        0.0040
      3 C          63.1961   84.6299    9.1489 C.ar    1  UNL1        0.0067
      4 C          62.2768   85.5401    9.9083 C.ar    1  UNL1        0.0307
      5 S          62.3629   85.1785   11.3615 S.2     1  UNL1       -0.0899
      6 C          61.4217   86.6220    9.3180 C.ar    1  UNL1        0.0252
      7 C          60.3525   86.2749    8.3249 C.ar    1  UNL1        0.0036
      8 C          59.4974   87.3568    7.7347 C.ar    1  UNL1        0.0207
      9 C          59.7115   88.7857    8.1377 C.ar    1  UNL1        0.0989
     10 N          60.7807   89.1328    9.1308 N.ar    1  UNL1       -0.2423
     11 C          61.6358   88.0509    9.7210 C.ar    1  UNL1        0.0993
     12 C          63.7245   83.3688   12.7815 C.3     1  UNL1        0.1022
     13 C          64.7245   84.9387   14.5941 C.3     1  UNL1        0.0861
     14 N          64.9051   83.8647   13.5626 N.3     1  UNL1       -0.2922
     15 H          65.2997   83.0570   14.0445 H       1  UNL1        0.1236
@<TRIPOS>BOND
     1    13    14    1
     2    14    12    1
     3    12     1    1
     4     1     2   ar
     5     2     3   ar
     6     3     4   ar
     7     4     6    1
     8     6     7   ar
     9     7     8   ar
    10     8     9   ar
    11     9    10   ar
    12    10    11   ar
    13     4     5   ar
    14     5     1   ar
    15    11     6   ar
    16    14    15    1
@<TRIPOS>MOLECULE
*****
 15 16 0 0 0
SMALL
GASTEIGER

@<TRIPOS>ATOM
      1 C          63.4180   83.3343   12.7615 C.ar    1  UNL1        0.0232
      2 C          63.8929   82.9064   11.4045 C.ar    1  UNL1        0.0040
      3 C          63.4177   83.9201   10.4062 C.ar    1  UNL1        0.0067
      4 C          62.6492   84.9746   11.1463 C.ar    1  UNL1        0.0307
      5 S          62.6495   84.6125   12.6019 S.2     1  UNL1       -0.0899
      6 C          61.9954   86.1796   10.5375 C.ar    1  UNL1        0.0252
      7 C          61.0979   86.0241    9.3458 C.ar    1  UNL1        0.0036
      8 C          60.4441   87.2291    8.7371 C.ar    1  UNL1        0.0207
      9 C          60.6877   88.5895    9.3202 C.ar    1  UNL1        0.0989
     10 N          61.5853   88.7449   10.5119 N.ar    1  UNL1       -0.2423
     11 C          62.2391   87.5400   11.1206 C.ar    1  UNL1        0.0993
     12 C          63.6679   82.6109   14.0516 C.3     1  UNL1        0.1022
     13 C          61.4771   81.2168   14.1323 C.3     1  UNL1        0.0861
     14 N          62.5170   82.0437   14.8286 N.3     1  UNL1       -0.2922
     15 H          62.9169   81.4578   15.5616 H       1  UNL1        0.1236
@<TRIPOS>BOND
     1    13    14    1
     2    14    12    1
     3    12     1    1
     4     1     2   ar
     5     2     3   ar
     6     3     4   ar
     7     4     6    1
     8     6     7   ar
     9     7     8   ar
    10     8     9   ar
    11     9    10   ar
    12    10    11   ar
    13     4     5   ar
    14     5     1   ar
    15    11     6   ar
    16    14    15    1
@<TRIPOS>MOLECULE
*****
 15 16 0 0 0
SMALL
GASTEIGER

@<TRIPOS>ATOM
      1 C          61.6914   86.6969    9.6205 C.ar    1  UNL1        0.0232
      2 C          62.6122   85.9512    8.7006 C.ar    1  UNL1        0.0040
      3 C          63.1269   84.7487    9.4348 C.ar    1  UNL1        0.0067
      4 C          62.5242   84.7512   10.8084 C.ar    1  UNL1        0.0307
      5 S          61.6371   85.9553   10.9232 S.2     1  UNL1       -0.0899
      6 C          62.7663   83.7291   11.8793 C.ar    1  UNL1        0.0252
      7 C          62.8847   82.2781   11.5182 C.ar    1  UNL1        0.0036
      8 C          63.1268   81.2560   12.5890 C.ar    1  UNL1        0.0207
      9 C          63.2503   81.6850   14.0211 C.ar    1  UNL1        0.0989
     10 N          63.1319   83.1360   14.3822 N.ar    1  UNL1       -0.2423
     11 C          62.8899   84.1581   13.3114 C.ar    1  UNL1        0.0993
     12 C          60.9544   87.9621    9.2948 C.3     1  UNL1        0.1022
     13 C          59.0343   86.8658    7.9305 C.3     1  UNL1        0.0861
     14 N          59.9973   87.9966    8.1403 N.3     1  UNL1       -0.2922
     15 H          59.4386   88.8434    8.2463 H       1  UNL1        0.1236
@<TRIPOS>BOND
     1    13    14    1
     2    14    12    1
     3    12     1    1
     4     1     2   ar
     5     2     3   ar
     6     3     4   ar
     7     4     6    1
     8     6     7   ar
     9     7     8   ar
    10     8     9   ar
    11     9    10   ar
    12    10    11   ar
    13     4     5   ar
    14     5     1   ar
    15    11     6   ar
    16    14    15    1
@<TRIPOS>MOLECULE
*****
 15 16 0 0 0
SMALL
GASTEIGER

@<TRIPOS>ATOM
      1 C          66.0105   93.1009   13.0573 C.ar    1  UNL1        0.0232
      2 C          66.0393   93.5415   11.6237 C.ar    1  UNL1        0.0040
      3 C          65.0887   92.6741   10.8530 C.ar    1  UNL1        0.0067
      4 C          64.4723   91.6975   11.8102 C.ar    1  UNL1        0.0307
      5 S          65.0420   91.9613   13.1725 S.2     1  UNL1       -0.0899
      6 C          63.4633   90.6424   11.4656 C.ar    1  UNL1        0.0252
      7 C          62.6645   90.7530   10.2009 C.ar    1  UNL1        0.0036
      8 C          61.6556   89.6979    9.8563 C.ar    1  UNL1        0.0207
      9 C          61.4455   88.5321   10.7765 C.ar    1  UNL1        0.0989
     10 N          62.2443   88.4214   12.0413 N.ar    1  UNL1       -0.2423
     11 C          63.2532   89.4765   12.3858 C.ar    1  UNL1        0.0993
     12 C          66.8098   93.6956   14.1787 C.3     1  UNL1        0.1022
     13 C          67.8186   92.4489   16.2227 C.3     1  UNL1        0.0861
     14 N          66.6669   93.1548   15.5705 N.3     1  UNL1       -0.2922
     15 H          66.4279   93.9445   16.1701 H       1  UNL1        0.1236
@<TRIPOS>BOND
     1    13    14    1
     2    14    12    1
     3    12     1    1
     4     1     2   ar
     5     2     3   ar
     6     3     4   ar
     7     4     6    1
     8     6     7   ar
     9     7     8   ar
    10     8     9   ar
    11     9    10   ar
    12    10    11   ar
    13     4     5   ar
    14     5     1   ar
    15    11     6   ar
    16    14    15    1
@<TRIPOS>MOLECULE
*****
 15 16 0 0 0
SMALL
GASTEIGER

@<TRIPOS>ATOM
      1 C          63.1030   90.5770   11.8931 C.ar    1  UNL1        0.0232
      2 C          63.7898   91.4687   10.9015 C.ar    1  UNL1        0.0040
      3 C          64.9663   92.1011   11.5840 C.ar    1  UNL1        0.0067
      4 C          65.0067   91.6003   12.9974 C.ar    1  UNL1        0.0307
      5 S          63.8551   90.6583   13.1884 S.2     1  UNL1       -0.0899
      6 C          66.0206   91.9756   14.0371 C.ar    1  UNL1        0.0252
      7 C          67.4804   91.9853   13.6921 C.ar    1  UNL1        0.0036
      8 C          68.4943   92.3606   14.7319 C.ar    1  UNL1        0.0207
      9 C          68.0484   92.7261   16.1167 C.ar    1  UNL1        0.0989
     10 N          66.5887   92.7163   16.4617 N.ar    1  UNL1       -0.2423
     11 C          65.5748   92.3411   15.4219 C.ar    1  UNL1        0.0993
     12 C          61.8790   89.7492   11.6347 C.3     1  UNL1        0.1022
     13 C          59.4249   90.5859   11.4684 C.3     1  UNL1        0.0861
     14 N          60.7507   90.3121   10.8223 N.3     1  UNL1       -0.2922
     15 H          61.0787   91.1976   10.4366 H       1  UNL1        0.1236
@<TRIPOS>BOND
     1    13    14    1
     2    14    12    1
     3    12     1    1
     4     1     2   ar
     5     2     3   ar
     6     3     4   ar
     7     4     6    1
     8     6     7   ar
     9     7     8   ar
    10     8     9   ar
    11     9    10   ar
    12    10    11   ar
    13     4     5   ar
    14     5     1   ar
    15    11     6   ar
    16    14    15    1
@<TRIPOS>MOLECULE
*****
 15 16 0 0 0
SMALL
GASTEIGER

@<TRIPOS>ATOM
      1 C          63.3520   85.4216   15.9778 C.ar    1  UNL1        0.0232
      2 C          64.6739   85.8163   15.3888 C.ar    1  UNL1        0.0040
      3 C          64.9191   84.9579   14.1834 C.ar    1  UNL1        0.0067
      4 C          63.7487   84.0327   14.0274 C.ar    1  UNL1        0.0307
      5 S          62.7802   84.3193   15.1364 S.2     1  UNL1       -0.0899
      6 C          63.5771   83.0018   12.9513 C.ar    1  UNL1        0.0252
      7 C          64.0821   83.2733   11.5652 C.ar    1  UNL1        0.0036
      8 C          63.9104   82.2425   10.4892 C.ar    1  UNL1        0.0207
      9 C          63.2337   80.9402   10.7992 C.ar    1  UNL1        0.0989
     10 N          62.7287   80.6687   12.1852 N.ar    1  UNL1       -0.2423
     11 C          62.9003   81.6996   13.2613 C.ar    1  UNL1        0.0993
     12 C          62.7139   86.0235   17.1946 C.3     1  UNL1        0.1022
     13 C          63.0839   88.5856   16.9731 C.3     1  UNL1        0.0861
     14 N          62.1593   87.4161   17.1394 N.3     1  UNL1       -0.2922
     15 H          61.5072   87.4426   16.3555 H       1  UNL1        0.1236
@<TRIPOS>BOND
     1    13    14    1
     2    14    12    1
     3    12     1    1
     4     1     2   ar
     5     2     3   ar
     6     3     4   ar
     7     4     6    1
     8     6     7   ar
     9     7     8   ar
    10     8     9   ar
    11     9    10   ar
    12    10    11   ar
    13     4     5   ar
    14     5     1   ar
    15    11     6   ar
    16    14    15    1
