@<TRIPOS>MOLECULE
*****
 33 36 0 0 0
SMALL
GASTEIGER

@<TRIPOS>ATOM
      1 C          64.1995   89.1374   14.6374 C.ar    1  UNL1        0.2020
      2 N          64.1868   87.7070   14.1862 N.ar    1  UNL1       -0.1915
      3 C          63.6314   86.8736   15.3029 C.ar    1  UNL1        0.2193
      4 N          63.3009   87.7890   16.4443 N.ar    1  UNL1       -0.2185
      5 C          62.7211   87.3775   17.7651 C.3     1  UNL1        0.1568
      6 N          63.6520   89.1881   16.0331 N.ar    1  UNL1       -0.1459
      7 C          66.3699   92.2463   13.4651 C.ar    1  UNL1        0.2417
      8 N          65.8934   91.0725   14.2683 N.ar    1  UNL1       -0.2073
      9 C          64.6760   90.3112   13.8341 C.ar    1  UNL1        0.1219
     10 C          63.9353   90.7236   12.5968 C.ar    1  UNL1        0.0240
     11 C          64.4119   91.8973   11.7935 C.ar    1  UNL1        0.0240
     12 C          65.6292   92.6586   12.2277 C.ar    1  UNL1        0.1189
     13 N          66.1058   93.8324   11.4244 N.ar    1  UNL1       -0.2826
     14 C          66.1690   95.2554   11.8947 C.ar    1  UNL1        0.1826
     15 N          66.7051   96.0916   10.7707 N.ar    1  UNL1       -0.2280
     16 C          66.9731   95.1855    9.6058 C.ar    1  UNL1        0.0786
     17 C          67.5162   95.6025    8.2712 C.3     1  UNL1        0.0538
     18 C          66.6027   93.7893   10.0098 C.ar    1  UNL1        0.0963
     19 C          67.7226   93.4564   15.3241 C.3     1  UNL1        0.2543
     20 O          67.5873   93.0076   13.8993 O.3     1  UNL1       -0.4551
     21 N          63.4401   85.3860   15.2818 N.pl3   1  UNL1       -0.2810
     22 H          63.3275   84.8922   16.1260 H       1  UNL1        0.1551
     23 C          63.4205   84.6507   13.9745 C.ar    1  UNL1        0.0782
     24 C          62.8749   85.3181   12.7468 C.ar    1  UNL1        0.0208
     25 C          62.8553   84.5828   11.4395 C.ar    1  UNL1        0.0728
     26 C          63.3812   83.1803   11.3599 C.ar    1  UNL1        0.0062
     27 C          63.9268   82.5130   12.5875 C.ar    1  UNL1        0.0309
     28 C          63.9464   83.2483   13.8948 C.ar    1  UNL1        0.1535
     29 F          64.4920   82.5810   15.1225 F       1  UNL1       -0.2029
     30 C          62.3098   85.2501   10.2119 C.3     1  UNL1        0.4186
     31 F          61.7642   85.9174    8.9843 F       1  UNL1       -0.1659
     32 F          63.4579   84.7131    9.4098 F       1  UNL1       -0.1659
     33 F          61.1616   85.7871   11.0140 F       1  UNL1       -0.1659
@<TRIPOS>BOND
     1    19    20    1
     2    20     7    1
     3     7     8   ar
     4     8     9   ar
     5     9     1    1
     6     1     2   ar
     7     2     3   ar
     8     3    21    1
     9    21    23    1
    10    23    24   ar
    11    24    25   ar
    12    25    30    1
    13    30    31    1
    14    30    32    1
    15    30    33    1
    16    25    26   ar
    17    26    27   ar
    18    27    28   ar
    19    28    29    1
    20     3     4   ar
    21     4     5    1
    22     4     6   ar
    23     9    10   ar
    24    10    11   ar
    25    11    12   ar
    26    12    13    1
    27    13    14   ar
    28    14    15   ar
    29    15    16   ar
    30    16    17    1
    31    16    18   ar
    32    12     7   ar
    33    18    13   ar
    34     6     1   ar
    35    28    23   ar
    36    21    22    1
@<TRIPOS>MOLECULE
*****
 33 36 0 0 0
SMALL
GASTEIGER

@<TRIPOS>ATOM
      1 C          64.1973   88.9249   14.7422 C.ar    1  UNL1        0.2020
      2 N          64.2751   87.4885   14.3171 N.ar    1  UNL1       -0.1915
      3 C          63.6937   86.6480   15.4151 C.ar    1  UNL1        0.2193
      4 N          63.2565   87.5651   16.5188 N.ar    1  UNL1       -0.2185
      5 C          62.6200   87.1481   17.8115 C.3     1  UNL1        0.1568
      6 N          63.5678   88.9722   16.1029 N.ar    1  UNL1       -0.1459
      7 C          64.4722   91.6268   11.8484 C.ar    1  UNL1        0.2417
      8 N          64.0030   90.4452   12.6443 N.ar    1  UNL1       -0.2073
      9 C          64.6665   90.1066   13.9462 C.ar    1  UNL1        0.1219
     10 C          65.7993   90.9496   14.4522 C.ar    1  UNL1        0.0240
     11 C          66.2686   92.1312   13.6563 C.ar    1  UNL1        0.0240
     12 C          65.6050   92.4698   12.3544 C.ar    1  UNL1        0.1189
     13 N          66.0743   93.6515   11.5584 N.ar    1  UNL1       -0.2826
     14 C          66.1253   95.0724   12.0364 C.ar    1  UNL1        0.1826
     15 N          66.6575   95.9188   10.9182 N.ar    1  UNL1       -0.2280
     16 C          66.9354   95.0210    9.7491 C.ar    1  UNL1        0.0786
     17 C          67.4783   95.4492    8.4180 C.3     1  UNL1        0.0538
     18 C          66.5749   93.6197   10.1448 C.ar    1  UNL1        0.0963
     19 C          62.7705   91.0474    9.9727 C.3     1  UNL1        0.2543
     20 O          63.8087   91.9654   10.5464 O.3     1  UNL1       -0.4551
     21 N          63.5709   85.1531   15.4103 N.pl3   1  UNL1       -0.2810
     22 H          63.5636   84.6570   16.2607 H       1  UNL1        0.1551
     23 C          63.4594   84.4138   14.1099 C.ar    1  UNL1        0.0782
     24 C          62.9741   85.1257   12.8818 C.ar    1  UNL1        0.0208
     25 C          62.8625   84.3865   11.5814 C.ar    1  UNL1        0.0728
     26 C          63.2362   82.9355   11.5090 C.ar    1  UNL1        0.0062
     27 C          63.7214   82.2238   12.7370 C.ar    1  UNL1        0.0309
     28 C          63.8330   82.9630   14.0374 C.ar    1  UNL1        0.1535
     29 F          64.3182   82.2513   15.2655 F       1  UNL1       -0.2029
     30 C          62.3773   85.0982   10.3534 C.3     1  UNL1        0.4186
     31 F          61.8921   85.8099    9.1254 F       1  UNL1       -0.1659
     32 F          61.2829   85.7369   11.1561 F       1  UNL1       -0.1659
     33 F          63.4718   84.4594    9.5508 F       1  UNL1       -0.1659
@<TRIPOS>BOND
     1    19    20    1
     2    20     7    1
     3     7     8   ar
     4     8     9   ar
     5     9     1    1
     6     1     2   ar
     7     2     3   ar
     8     3    21    1
     9    21    23    1
    10    23    24   ar
    11    24    25   ar
    12    25    30    1
    13    30    31    1
    14    30    32    1
    15    30    33    1
    16    25    26   ar
    17    26    27   ar
    18    27    28   ar
    19    28    29    1
    20     3     4   ar
    21     4     5    1
    22     4     6   ar
    23     9    10   ar
    24    10    11   ar
    25    11    12   ar
    26    12    13    1
    27    13    14   ar
    28    14    15   ar
    29    15    16   ar
    30    16    17    1
    31    16    18   ar
    32    12     7   ar
    33    18    13   ar
    34     6     1   ar
    35    28    23   ar
    36    21    22    1
@<TRIPOS>MOLECULE
*****
 33 36 0 0 0
SMALL
GASTEIGER

@<TRIPOS>ATOM
      1 C          64.1951   88.5843   15.0336 C.ar    1  UNL1        0.2020
      2 N          64.6226   87.1580   14.8525 N.ar    1  UNL1       -0.1915
      3 C          63.9501   86.3346   15.9106 C.ar    1  UNL1        0.2193
      4 N          63.1069   87.2520   16.7457 N.ar    1  UNL1       -0.2185
      5 C          62.2609   86.8496   17.9172 C.3     1  UNL1        0.1568
      6 N          63.2583   88.6424   16.2037 N.ar    1  UNL1       -0.1459
      7 C          64.3395   91.2240   12.0736 C.ar    1  UNL1        0.2417
      8 N          63.9064   90.0601   12.9149 N.ar    1  UNL1       -0.2073
      9 C          64.6282   89.7482   14.1923 C.ar    1  UNL1        0.1219
     10 C          65.7831   90.6002   14.6284 C.ar    1  UNL1        0.0240
     11 C          66.2162   91.7641   13.7871 C.ar    1  UNL1        0.0240
     12 C          65.4944   92.0759   12.5097 C.ar    1  UNL1        0.1189
     13 N          65.9276   93.2399   11.6684 N.ar    1  UNL1       -0.2826
     14 C          66.0362   94.6649   12.1238 C.ar    1  UNL1        0.1826
     15 N          66.5039   95.4888   10.9609 N.ar    1  UNL1       -0.2280
     16 C          66.6843   94.5730    9.7867 C.ar    1  UNL1        0.0786
     17 C          67.1408   94.9762    8.4159 C.3     1  UNL1        0.0538
     18 C          66.3281   93.1831   10.2240 C.ar    1  UNL1        0.0963
     19 C          62.4803   90.6676   10.3462 C.3     1  UNL1        0.2543
     20 O          63.6177   91.5358   10.7962 O.3     1  UNL1       -0.4551
     21 N          64.0953   84.8537   16.1004 N.pl3   1  UNL1       -0.2810
     22 H          64.3058   84.4898   16.9906 H       1  UNL1        0.1551
     23 C          63.9199   83.9273   14.9338 C.ar    1  UNL1        0.0782
     24 C          62.8214   82.9057   14.9459 C.ar    1  UNL1        0.0208
     25 C          62.6460   81.9793   13.7793 C.ar    1  UNL1        0.0728
     26 C          63.5688   82.0744   12.6006 C.ar    1  UNL1        0.0062
     27 C          64.6672   83.0959   12.5885 C.ar    1  UNL1        0.0309
     28 C          64.8426   84.0223   13.7551 C.ar    1  UNL1        0.1535
     29 F          65.9410   85.0438   13.7431 F       1  UNL1       -0.2029
     30 C          61.5476   80.9578   13.7914 C.3     1  UNL1        0.4186
     31 F          60.4493   79.9363   13.8035 F       1  UNL1       -0.1659
     32 F          60.6957   81.8835   14.6083 F       1  UNL1       -0.1659
     33 F          62.3996   80.0321   12.9746 F       1  UNL1       -0.1659
@<TRIPOS>BOND
     1    19    20    1
     2    20     7    1
     3     7     8   ar
     4     8     9   ar
     5     9     1    1
     6     1     2   ar
     7     2     3   ar
     8     3    21    1
     9    21    23    1
    10    23    24   ar
    11    24    25   ar
    12    25    30    1
    13    30    31    1
    14    30    32    1
    15    30    33    1
    16    25    26   ar
    17    26    27   ar
    18    27    28   ar
    19    28    29    1
    20     3     4   ar
    21     4     5    1
    22     4     6   ar
    23     9    10   ar
    24    10    11   ar
    25    11    12   ar
    26    12    13    1
    27    13    14   ar
    28    14    15   ar
    29    15    16   ar
    30    16    17    1
    31    16    18   ar
    32    12     7   ar
    33    18    13   ar
    34     6     1   ar
    35    28    23   ar
    36    21    22    1
@<TRIPOS>MOLECULE
*****
 33 36 0 0 0
SMALL
GASTEIGER

@<TRIPOS>ATOM
      1 C          64.2508   89.0121   14.7142 C.ar    1  UNL1        0.2020
      2 N          64.4896   87.5717   14.3703 N.ar    1  UNL1       -0.1915
      3 C          63.8604   86.7293   15.4400 C.ar    1  UNL1        0.2193
      4 N          63.2327   87.6491   16.4451 N.ar    1  UNL1       -0.2185
      5 C          62.4935   87.2313   17.6817 C.3     1  UNL1        0.1568
      6 N          63.4740   89.0599   15.9965 N.ar    1  UNL1       -0.1459
      7 C          66.3854   92.1456   13.5415 C.ar    1  UNL1        0.2417
      8 N          65.9277   90.9610   14.3397 N.ar    1  UNL1       -0.2073
      9 C          64.7085   90.1968   13.9159 C.ar    1  UNL1        0.1219
     10 C          63.9470   90.6172   12.6939 C.ar    1  UNL1        0.0240
     11 C          64.4047   91.8018   11.8957 C.ar    1  UNL1        0.0240
     12 C          65.6239   92.5660   12.3195 C.ar    1  UNL1        0.1189
     13 N          66.0816   93.7507   11.5212 N.ar    1  UNL1       -0.2826
     14 C          66.1452   95.1689   12.0056 C.ar    1  UNL1        0.1826
     15 N          66.6590   96.0198   10.8822 N.ar    1  UNL1       -0.2280
     16 C          66.9128   95.1274    9.7034 C.ar    1  UNL1        0.0786
     17 C          67.4323   95.5613    8.3648 C.3     1  UNL1        0.0538
     18 C          66.5560   93.7250   10.0984 C.ar    1  UNL1        0.0963
     19 C          68.4214   92.4331   15.1295 C.3     1  UNL1        0.2543
     20 O          67.6046   92.9097   13.9653 O.3     1  UNL1       -0.4551
     21 N          63.8591   85.2303   15.4951 N.pl3   1  UNL1       -0.2810
     22 H          64.1703   84.7673   16.3062 H       1  UNL1        0.1551
     23 C          63.3835   84.4368   14.3143 C.ar    1  UNL1        0.0782
     24 C          63.0563   82.9813   14.4715 C.ar    1  UNL1        0.0208
     25 C          62.5807   82.1878   13.2907 C.ar    1  UNL1        0.0728
     26 C          62.4323   82.8498   11.9529 C.ar    1  UNL1        0.0062
     27 C          62.7594   84.3052   11.7958 C.ar    1  UNL1        0.0309
     28 C          63.2350   85.0986   12.9765 C.ar    1  UNL1        0.1535
     29 F          63.5622   86.5542   12.8195 F       1  UNL1       -0.2029
     30 C          62.2535   80.7324   13.4478 C.3     1  UNL1        0.4186
     31 F          61.9263   79.2770   13.6049 F       1  UNL1       -0.1659
     32 F          63.0891   80.4146   12.2434 F       1  UNL1       -0.1659
     33 F          61.4179   81.0503   14.6523 F       1  UNL1       -0.1659
@<TRIPOS>BOND
     1    19    20    1
     2    20     7    1
     3     7     8   ar
     4     8     9   ar
     5     9     1    1
     6     1     2   ar
     7     2     3   ar
     8     3    21    1
     9    21    23    1
    10    23    24   ar
    11    24    25   ar
    12    25    30    1
    13    30    31    1
    14    30    32    1
    15    30    33    1
    16    25    26   ar
    17    26    27   ar
    18    27    28   ar
    19    28    29    1
    20     3     4   ar
    21     4     5    1
    22     4     6   ar
    23     9    10   ar
    24    10    11   ar
    25    11    12   ar
    26    12    13    1
    27    13    14   ar
    28    14    15   ar
    29    15    16   ar
    30    16    17    1
    31    16    18   ar
    32    12     7   ar
    33    18    13   ar
    34     6     1   ar
    35    28    23   ar
    36    21    22    1
@<TRIPOS>MOLECULE
*****
 33 36 0 0 0
SMALL
GASTEIGER

@<TRIPOS>ATOM
      1 C          62.7011   88.9944   11.6643 C.ar    1  UNL1        0.2020
      2 N          62.6724   87.4971   11.5801 N.ar    1  UNL1       -0.1915
      3 C          61.5722   87.1067   10.6383 C.ar    1  UNL1        0.2193
      4 N          60.9207   88.3629   10.1404 N.ar    1  UNL1       -0.2185
      5 C          59.7732   88.4389    9.1775 C.3     1  UNL1        0.1568
      6 N          61.6185   89.5295   10.7745 N.ar    1  UNL1       -0.1459
      7 C          65.1012   91.9433   12.8017 C.ar    1  UNL1        0.2417
      8 N          64.1560   91.1247   11.9732 N.ar    1  UNL1       -0.2073
      9 C          63.6464   89.8131   12.4928 C.ar    1  UNL1        0.1219
     10 C          64.0819   89.3201   13.8408 C.ar    1  UNL1        0.0240
     11 C          65.0272   90.1387   14.6693 C.ar    1  UNL1        0.0240
     12 C          65.5368   91.4503   14.1497 C.ar    1  UNL1        0.1189
     13 N          66.4821   92.2689   14.9782 N.ar    1  UNL1       -0.2826
     14 C          66.2047   92.8219   16.3447 C.ar    1  UNL1        0.1826
     15 N          67.4219   93.5730   16.7966 N.ar    1  UNL1       -0.2280
     16 C          68.4516   93.4843   15.7094 C.ar    1  UNL1        0.0786
     17 C          69.8215   94.0944   15.7407 C.3     1  UNL1        0.0538
     18 C          67.8708   92.6783   14.5856 C.ar    1  UNL1        0.0963
     19 C          66.3685   93.3058   10.9885 C.3     1  UNL1        0.2543
     20 O          65.6109   93.2549   12.2821 O.3     1  UNL1       -0.4551
     21 N          61.1903   85.7061   10.2607 N.pl3   1  UNL1       -0.2810
     22 H          60.3065   85.5264    9.8659 H       1  UNL1        0.1551
     23 C          62.1549   84.5795   10.4848 C.ar    1  UNL1        0.0782
     24 C          61.9811   83.6663   11.6622 C.ar    1  UNL1        0.0208
     25 C          62.9457   82.5397   11.8862 C.ar    1  UNL1        0.0728
     26 C          64.0840   82.3261   10.9329 C.ar    1  UNL1        0.0062
     27 C          64.2577   83.2392    9.7556 C.ar    1  UNL1        0.0309
     28 C          63.2931   84.3658    9.5316 C.ar    1  UNL1        0.1535
     29 F          63.4668   85.2790    8.3542 F       1  UNL1       -0.2029
     30 C          62.7720   81.6266   13.0635 C.3     1  UNL1        0.4186
     31 F          62.5983   80.7135   14.2408 F       1  UNL1       -0.1659
     32 F          62.7432   82.8137   13.9800 F       1  UNL1       -0.1659
     33 F          62.8007   80.4395   12.1471 F       1  UNL1       -0.1659
@<TRIPOS>BOND
     1    19    20    1
     2    20     7    1
     3     7     8   ar
     4     8     9   ar
     5     9     1    1
     6     1     2   ar
     7     2     3   ar
     8     3    21    1
     9    21    23    1
    10    23    24   ar
    11    24    25   ar
    12    25    30    1
    13    30    31    1
    14    30    32    1
    15    30    33    1
    16    25    26   ar
    17    26    27   ar
    18    27    28   ar
    19    28    29    1
    20     3     4   ar
    21     4     5    1
    22     4     6   ar
    23     9    10   ar
    24    10    11   ar
    25    11    12   ar
    26    12    13    1
    27    13    14   ar
    28    14    15   ar
    29    15    16   ar
    30    16    17    1
    31    16    18   ar
    32    12     7   ar
    33    18    13   ar
    34     6     1   ar
    35    28    23   ar
    36    21    22    1
@<TRIPOS>MOLECULE
*****
 33 36 0 0 0
SMALL
GASTEIGER

@<TRIPOS>ATOM
      1 C          64.4911   89.5674   14.4251 C.ar    1  UNL1        0.2020
      2 N          65.2698   90.5497   13.6013 N.ar    1  UNL1       -0.1915
      3 C          65.3772   91.8265   14.3812 C.ar    1  UNL1        0.2193
      4 N          64.6649   91.6333   15.6871 N.ar    1  UNL1       -0.2185
      5 C          64.5248   92.6566   16.7748 C.3     1  UNL1        0.1568
      6 N          64.1173   90.2371   15.7142 N.ar    1  UNL1       -0.1459
      7 C          63.0241   86.5008   12.3772 C.ar    1  UNL1        0.2417
      8 N          63.3685   87.9060   12.7729 N.ar    1  UNL1       -0.2073
      9 C          64.1468   88.1620   14.0294 C.ar    1  UNL1        0.1219
     10 C          64.5807   87.0128   14.8902 C.ar    1  UNL1        0.0240
     11 C          64.2363   85.6076   14.4944 C.ar    1  UNL1        0.0240
     12 C          63.4580   85.3516   13.2379 C.ar    1  UNL1        0.1189
     13 N          63.1137   83.9462   12.8422 N.ar    1  UNL1       -0.2826
     14 C          63.2260   83.3658   11.4636 C.ar    1  UNL1        0.1826
     15 N          62.7782   81.9355   11.5250 N.ar    1  UNL1       -0.2280
     16 C          62.3892   81.6319   12.9416 C.ar    1  UNL1        0.0786
     17 C          61.8820   80.3166   13.4541 C.3     1  UNL1        0.0538
     18 C          62.5965   82.8746   13.7556 C.ar    1  UNL1        0.0963
     19 C          61.9200   87.3799   10.1959 C.3     1  UNL1        0.2543
     20 O          62.2459   86.2448   11.1207 O.3     1  UNL1       -0.4551
     21 N          66.0745   93.0769   13.9338 N.pl3   1  UNL1       -0.2810
     22 H          66.1951   93.8250   14.5623 H       1  UNL1        0.1551
     23 C          66.5880   93.1876   12.5287 C.ar    1  UNL1        0.0782
     24 C          66.0450   94.2443   11.6128 C.ar    1  UNL1        0.0208
     25 C          66.5585   94.3550   10.2078 C.ar    1  UNL1        0.0728
     26 C          67.6149   93.4090    9.7187 C.ar    1  UNL1        0.0062
     27 C          68.1578   92.3524   10.6345 C.ar    1  UNL1        0.0309
     28 C          67.6443   92.2417   12.0396 C.ar    1  UNL1        0.1535
     29 F          68.1871   91.1850   12.9555 F       1  UNL1       -0.2029
     30 C          66.0157   95.4116    9.2920 C.3     1  UNL1        0.4186
     31 F          65.4728   96.4682    8.3761 F       1  UNL1       -0.1659
     32 F          65.1640   95.9409   10.4075 F       1  UNL1       -0.1659
     33 F          66.8673   94.8822    8.1764 F       1  UNL1       -0.1659
@<TRIPOS>BOND
     1    19    20    1
     2    20     7    1
     3     7     8   ar
     4     8     9   ar
     5     9     1    1
     6     1     2   ar
     7     2     3   ar
     8     3    21    1
     9    21    23    1
    10    23    24   ar
    11    24    25   ar
    12    25    30    1
    13    30    31    1
    14    30    32    1
    15    30    33    1
    16    25    26   ar
    17    26    27   ar
    18    27    28   ar
    19    28    29    1
    20     3     4   ar
    21     4     5    1
    22     4     6   ar
    23     9    10   ar
    24    10    11   ar
    25    11    12   ar
    26    12    13    1
    27    13    14   ar
    28    14    15   ar
    29    15    16   ar
    30    16    17    1
    31    16    18   ar
    32    12     7   ar
    33    18    13   ar
    34     6     1   ar
    35    28    23   ar
    36    21    22    1
@<TRIPOS>MOLECULE
*****
 33 36 0 0 0
SMALL
GASTEIGER

@<TRIPOS>ATOM
      1 C          59.6325   91.5900    4.3517 C.ar    1  UNL1        0.2020
      2 N          59.9546   90.4763    5.3034 N.ar    1  UNL1       -0.1915
      3 C          58.6698   90.0060    5.9184 C.ar    1  UNL1        0.2193
      4 N          57.5536   90.8291    5.3466 N.ar    1  UNL1       -0.2185
      5 C          56.0981   90.6964    5.6839 C.3     1  UNL1        0.1568
      6 N          58.1486   91.8080    4.3784 N.ar    1  UNL1       -0.1459
      7 C          61.1916   94.3796    1.9985 C.ar    1  UNL1        0.2417
      8 N          60.2034   93.6177    2.8308 N.ar    1  UNL1       -0.2073
      9 C          60.6208   92.3520    3.5193 C.ar    1  UNL1        0.1219
     10 C          62.0263   91.8483    3.3754 C.ar    1  UNL1        0.0240
     11 C          63.0145   92.6103    2.5431 C.ar    1  UNL1        0.0240
     12 C          62.5971   93.8760    1.8546 C.ar    1  UNL1        0.1189
     13 N          63.5854   94.6380    1.0222 N.ar    1  UNL1       -0.2826
     14 C          64.7302   95.4563    1.5416 C.ar    1  UNL1        0.1826
     15 N          65.4546   96.0395    0.3647 N.ar    1  UNL1       -0.2280
     16 C          64.7576   95.5815   -0.8821 C.ar    1  UNL1        0.0786
     17 C          65.1473   95.9288   -2.2883 C.3     1  UNL1        0.0538
     18 C          63.6023   94.7154   -0.4757 C.ar    1  UNL1        0.0963
     19 C          60.1604   96.7621    2.1012 C.3     1  UNL1        0.2543
     20 O          60.7742   95.6453    1.3101 O.3     1  UNL1       -0.4551
     21 N          58.5263   88.9057    6.9278 N.pl3   1  UNL1       -0.2810
     22 H          57.6883   88.3916    6.9798 H       1  UNL1        0.1551
     23 C          59.6596   88.5888    7.8580 C.ar    1  UNL1        0.0782
     24 C          60.2600   89.6717    8.7048 C.ar    1  UNL1        0.0208
     25 C          61.3933   89.3548    9.6350 C.ar    1  UNL1        0.0728
     26 C          61.9261   87.9551    9.7184 C.ar    1  UNL1        0.0062
     27 C          61.3257   86.8723    8.8717 C.ar    1  UNL1        0.0309
     28 C          60.1924   87.1893    7.9415 C.ar    1  UNL1        0.1535
     29 F          59.5920   86.1064    7.0946 F       1  UNL1       -0.2029
     30 C          61.9937   90.4376   10.4817 C.3     1  UNL1        0.4186
     31 F          62.5941   91.5204   11.3285 F       1  UNL1       -0.1659
     32 F          60.6251   90.8229   10.9595 F       1  UNL1       -0.1659
     33 F          63.3624   90.0523   10.0040 F       1  UNL1       -0.1659
@<TRIPOS>BOND
     1    19    20    1
     2    20     7    1
     3     7     8   ar
     4     8     9   ar
     5     9     1    1
     6     1     2   ar
     7     2     3   ar
     8     3    21    1
     9    21    23    1
    10    23    24   ar
    11    24    25   ar
    12    25    30    1
    13    30    31    1
    14    30    32    1
    15    30    33    1
    16    25    26   ar
    17    26    27   ar
    18    27    28   ar
    19    28    29    1
    20     3     4   ar
    21     4     5    1
    22     4     6   ar
    23     9    10   ar
    24    10    11   ar
    25    11    12   ar
    26    12    13    1
    27    13    14   ar
    28    14    15   ar
    29    15    16   ar
    30    16    17    1
    31    16    18   ar
    32    12     7   ar
    33    18    13   ar
    34     6     1   ar
    35    28    23   ar
    36    21    22    1
@<TRIPOS>MOLECULE
*****
 33 36 0 0 0
SMALL
GASTEIGER

@<TRIPOS>ATOM
      1 C          62.7120   87.6488   11.6739 C.ar    1  UNL1        0.2020
      2 N          63.2188   88.5603   12.7519 N.ar    1  UNL1       -0.1915
      3 C          63.0286   89.9748   12.2903 C.ar    1  UNL1        0.2193
      4 N          62.4042   89.9374   10.9268 N.ar    1  UNL1       -0.2185
      5 C          62.0396   91.1285   10.0911 C.3     1  UNL1        0.1568
      6 N          62.2086   88.4999   10.5459 N.ar    1  UNL1       -0.1459
      7 C          62.6893   83.9370   13.0784 C.ar    1  UNL1        0.2417
      8 N          62.6922   85.4364   13.0359 N.ar    1  UNL1       -0.2073
      9 C          62.7091   86.1493   11.7163 C.ar    1  UNL1        0.1219
     10 C          62.7230   85.3629   10.4391 C.ar    1  UNL1        0.0240
     11 C          62.7201   83.8635   10.4815 C.ar    1  UNL1        0.0240
     12 C          62.7033   83.1506   11.8012 C.ar    1  UNL1        0.1189
     13 N          62.7004   81.6511   11.8436 N.ar    1  UNL1       -0.2826
     14 C          62.5356   80.8041   13.0705 C.ar    1  UNL1        0.1826
     15 N          62.5952   79.3650   12.6517 N.ar    1  UNL1       -0.2280
     16 C          62.7968   79.3226   11.1658 C.ar    1  UNL1        0.0786
     17 C          62.9129   78.0847   10.3268 C.3     1  UNL1        0.0538
     18 C          62.8618   80.7355   10.6664 C.ar    1  UNL1        0.0963
     19 C          62.6042   84.0096   15.6740 C.3     1  UNL1        0.2543
     20 O          62.6725   83.2241   14.3980 O.3     1  UNL1       -0.4551
     21 N          63.3979   91.2098   13.0573 N.pl3   1  UNL1       -0.2810
     22 H          62.7100   91.6982   13.5647 H       1  UNL1        0.1551
     23 C          64.8153   91.7006   13.0513 C.ar    1  UNL1        0.0782
     24 C          65.6196   91.6857   14.3175 C.ar    1  UNL1        0.0208
     25 C          67.0370   92.1765   14.3114 C.ar    1  UNL1        0.0728
     26 C          67.6501   92.6823   13.0393 C.ar    1  UNL1        0.0062
     27 C          66.8459   92.6972   11.7732 C.ar    1  UNL1        0.0309
     28 C          65.4285   92.2064   11.7793 C.ar    1  UNL1        0.1535
     29 F          64.6242   92.2213   10.5132 F       1  UNL1       -0.2029
     30 C          67.8412   92.1616   15.5775 C.3     1  UNL1        0.4186
     31 F          68.6454   92.1467   16.8436 F       1  UNL1       -0.1659
     32 F          69.1073   92.1581   14.7732 F       1  UNL1       -0.1659
     33 F          66.5751   92.1652   16.3818 F       1  UNL1       -0.1659
@<TRIPOS>BOND
     1    19    20    1
     2    20     7    1
     3     7     8   ar
     4     8     9   ar
     5     9     1    1
     6     1     2   ar
     7     2     3   ar
     8     3    21    1
     9    21    23    1
    10    23    24   ar
    11    24    25   ar
    12    25    30    1
    13    30    31    1
    14    30    32    1
    15    30    33    1
    16    25    26   ar
    17    26    27   ar
    18    27    28   ar
    19    28    29    1
    20     3     4   ar
    21     4     5    1
    22     4     6   ar
    23     9    10   ar
    24    10    11   ar
    25    11    12   ar
    26    12    13    1
    27    13    14   ar
    28    14    15   ar
    29    15    16   ar
    30    16    17    1
    31    16    18   ar
    32    12     7   ar
    33    18    13   ar
    34     6     1   ar
    35    28    23   ar
    36    21    22    1
@<TRIPOS>MOLECULE
*****
 33 36 0 0 0
SMALL
GASTEIGER

@<TRIPOS>ATOM
      1 C          62.7211   87.5563   11.6624 C.ar    1  UNL1        0.2020
      2 N          63.1606   88.4670   12.7703 N.ar    1  UNL1       -0.1915
      3 C          63.0064   89.8817   12.2960 C.ar    1  UNL1        0.2193
      4 N          62.4717   89.8452   10.8950 N.ar    1  UNL1       -0.2185
      5 C          62.1668   91.0368   10.0363 C.3     1  UNL1        0.1568
      6 N          62.2954   88.4080   10.5035 N.ar    1  UNL1       -0.1459
      7 C          62.6156   83.8461   13.0674 C.ar    1  UNL1        0.2417
      8 N          62.6273   85.3454   13.0239 N.ar    1  UNL1       -0.2073
      9 C          62.7094   86.0569   11.7059 C.ar    1  UNL1        0.1219
     10 C          62.7799   85.2691   10.4314 C.ar    1  UNL1        0.0240
     11 C          62.7683   83.7698   10.4749 C.ar    1  UNL1        0.0240
     12 C          62.6861   83.0583   11.7929 C.ar    1  UNL1        0.1189
     13 N          62.6744   81.5589   11.8363 N.ar    1  UNL1       -0.2826
     14 C          62.4985   80.7137   13.0630 C.ar    1  UNL1        0.1826
     15 N          62.5520   79.2740   12.6455 N.ar    1  UNL1       -0.2280
     16 C          62.7610   79.2294   11.1608 C.ar    1  UNL1        0.0786
     17 C          62.8744   77.9902   10.3232 C.3     1  UNL1        0.0538
     18 C          62.8367   80.6415   10.6607 C.ar    1  UNL1        0.0963
     19 C          62.5575   83.9188   15.6638 C.3     1  UNL1        0.2543
     20 O          62.5335   83.1346   14.3853 O.3     1  UNL1       -0.4551
     21 N          63.3302   91.1161   13.0843 N.pl3   1  UNL1       -0.2810
     22 H          62.6209   91.5809   13.5845 H       1  UNL1        0.1551
     23 C          64.7345   91.6424   13.1106 C.ar    1  UNL1        0.0782
     24 C          65.3455   92.2119   11.8646 C.ar    1  UNL1        0.0208
     25 C          66.7499   92.7381   11.8909 C.ar    1  UNL1        0.0728
     26 C          67.5433   92.6950   13.1631 C.ar    1  UNL1        0.0062
     27 C          66.9324   92.1256   14.4091 C.ar    1  UNL1        0.0309
     28 C          65.5280   91.5993   14.3828 C.ar    1  UNL1        0.1535
     29 F          64.9169   91.0298   15.6288 F       1  UNL1       -0.2029
     30 C          67.3609   93.3076   10.6449 C.3     1  UNL1        0.4186
     31 F          67.9719   93.8770    9.3989 F       1  UNL1       -0.1659
     32 F          67.9025   91.9540   10.2919 F       1  UNL1       -0.1659
     33 F          66.8193   94.6611   10.9979 F       1  UNL1       -0.1659
@<TRIPOS>BOND
     1    19    20    1
     2    20     7    1
     3     7     8   ar
     4     8     9   ar
     5     9     1    1
     6     1     2   ar
     7     2     3   ar
     8     3    21    1
     9    21    23    1
    10    23    24   ar
    11    24    25   ar
    12    25    30    1
    13    30    31    1
    14    30    32    1
    15    30    33    1
    16    25    26   ar
    17    26    27   ar
    18    27    28   ar
    19    28    29    1
    20     3     4   ar
    21     4     5    1
    22     4     6   ar
    23     9    10   ar
    24    10    11   ar
    25    11    12   ar
    26    12    13    1
    27    13    14   ar
    28    14    15   ar
    29    15    16   ar
    30    16    17    1
    31    16    18   ar
    32    12     7   ar
    33    18    13   ar
    34     6     1   ar
    35    28    23   ar
    36    21    22    1
