@<TRIPOS>MOLECULE
*****
 18 20 0 0 0
SMALL
GASTEIGER

@<TRIPOS>ATOM
      1 O          62.6445   82.5498   14.9456 O.co2   1  UNL1       -0.6751
      2 S          63.3244   83.7786   14.4186 S.O     1  UNL1        0.0985
      3 C          63.0724   84.2297   13.0104 C.2     1  UNL1        0.3556
      4 N          63.7533   83.7048   11.7813 N.2     1  UNL1       -0.1811
      5 C          63.1970   84.4356   10.5953 C.2     1  UNL1        0.1012
      6 C          63.4911   84.3379    9.1277 C.2     1  UNL1        0.0202
      7 C          62.7605   85.2169    8.1563 C.2     1  UNL1       -0.0026
      8 C          61.7358   86.1934    8.6525 C.2     1  UNL1       -0.0197
      9 C          61.4417   86.2911   10.1201 C.3     1  UNL1        0.0735
     10 C          62.1723   85.4121   11.0915 C.2     1  UNL1        0.0869
     11 N          62.0953   85.2849   12.5841 N.2     1  UNL1       -0.1848
     12 C          64.2563   84.5563   15.2999 C.3     1  UNL1        0.3096
     13 C          63.8909   85.9433   15.7389 C.ar    1  UNL1        0.1186
     14 C          63.1664   86.1531   17.0355 C.ar    1  UNL1        0.0199
     15 C          62.8010   87.5400   17.4746 C.ar    1  UNL1        0.0030
     16 C          63.1600   88.7172   16.6170 C.ar    1  UNL1        0.0207
     17 C          63.8844   88.5074   15.3204 C.ar    1  UNL1        0.0986
     18 N          64.2499   87.1204   14.8814 N.ar    1  UNL1       -0.2430
@<TRIPOS>UNITY_ATOM_ATTR
1 1
charge -1
2 1
charge 1
@<TRIPOS>BOND
     1     1     2    2
     2     2    12    1
     3    12    13    1
     4    13    14   ar
     5    14    15   ar
     6    15    16   ar
     7    16    17   ar
     8    17    18   ar
     9     2     3    1
    10     3     4    2
    11     4     5    1
    12     5     6    2
    13     6     7    1
    14     7     8    2
    15     8     9    1
    16     9    10    1
    17    10    11    2
    18    18    13   ar
    19    11     3    1
    20    10     5    1
@<TRIPOS>MOLECULE
*****
 18 20 0 0 0
SMALL
GASTEIGER

@<TRIPOS>ATOM
      1 O          59.5995   87.4848    8.9028 O.co2   1  UNL1       -0.6751
      2 S          60.4212   87.5845   10.1537 S.O     1  UNL1        0.0985
      3 C          61.3434   86.4651   10.5365 C.2     1  UNL1        0.3556
      4 N          62.1257   85.6043    9.5895 N.2     1  UNL1       -0.1811
      5 C          62.9111   84.6172   10.4012 C.2     1  UNL1        0.1012
      6 C          63.8582   83.5224   10.0083 C.2     1  UNL1        0.0202
      7 C          64.5083   82.6784   11.0641 C.2     1  UNL1       -0.0026
      8 C          64.2114   82.9292   12.5129 C.2     1  UNL1       -0.0197
      9 C          63.2643   84.0239   12.9058 C.3     1  UNL1        0.0735
     10 C          62.6141   84.8679   11.8499 C.2     1  UNL1        0.0869
     11 N          61.6453   86.0100   11.9336 N.2     1  UNL1       -0.1848
     12 C          60.3207   88.8036   11.0219 C.3     1  UNL1        0.3096
     13 C          61.5482   89.6093   11.3285 C.ar    1  UNL1        0.1186
     14 C          62.1774   90.4536   10.2601 C.ar    1  UNL1        0.0199
     15 C          63.4049   91.2593   10.5667 C.ar    1  UNL1        0.0030
     16 C          64.0033   91.2206   11.9417 C.ar    1  UNL1        0.0207
     17 C          63.3742   90.3763   13.0100 C.ar    1  UNL1        0.0986
     18 N          62.1466   89.5706   12.7034 N.ar    1  UNL1       -0.2430
@<TRIPOS>UNITY_ATOM_ATTR
1 1
charge -1
2 1
charge 1
@<TRIPOS>BOND
     1     1     2    2
     2     2    12    1
     3    12    13    1
     4    13    14   ar
     5    14    15   ar
     6    15    16   ar
     7    16    17   ar
     8    17    18   ar
     9     2     3    1
    10     3     4    2
    11     4     5    1
    12     5     6    2
    13     6     7    1
    14     7     8    2
    15     8     9    1
    16     9    10    1
    17    10    11    2
    18    18    13   ar
    19    11     3    1
    20    10     5    1
@<TRIPOS>MOLECULE
*****
 18 20 0 0 0
SMALL
GASTEIGER

@<TRIPOS>ATOM
      1 O          59.7946   90.4982   10.1048 O.co2   1  UNL1       -0.6751
      2 S          60.6043   89.5383   10.9250 S.O     1  UNL1        0.0985
      3 C          61.8401   90.0119   11.6310 C.2     1  UNL1        0.3556
      4 N          62.3401   89.5221   12.9577 N.2     1  UNL1       -0.1811
      5 C          63.6020   90.2660   13.2809 C.2     1  UNL1        0.1012
      6 C          64.5322   90.2014   14.4558 C.2     1  UNL1        0.0202
      7 C          65.7424   91.0863   14.5037 C.2     1  UNL1       -0.0026
      8 C          66.0223   92.0359   13.3767 C.2     1  UNL1       -0.0197
      9 C          65.0920   92.1005   12.2019 C.3     1  UNL1        0.0735
     10 C          63.8818   91.2155   12.1540 C.2     1  UNL1        0.0869
     11 N          62.7929   91.0585   11.1343 N.2     1  UNL1       -0.1848
     12 C          60.1782   88.1046   11.0393 C.3     1  UNL1        0.3096
     13 C          61.1125   87.0087   10.6196 C.ar    1  UNL1        0.1186
     14 C          61.5620   86.9122    9.1918 C.ar    1  UNL1        0.0199
     15 C          62.4963   85.8163    8.7721 C.ar    1  UNL1        0.0030
     16 C          62.9811   84.8170    9.7803 C.ar    1  UNL1        0.0207
     17 C          62.5315   84.9135   11.2081 C.ar    1  UNL1        0.0986
     18 N          61.5972   86.0094   11.6277 N.ar    1  UNL1       -0.2430
@<TRIPOS>UNITY_ATOM_ATTR
1 1
charge -1
2 1
charge 1
@<TRIPOS>BOND
     1     1     2    2
     2     2    12    1
     3    12    13    1
     4    13    14   ar
     5    14    15   ar
     6    15    16   ar
     7    16    17   ar
     8    17    18   ar
     9     2     3    1
    10     3     4    2
    11     4     5    1
    12     5     6    2
    13     6     7    1
    14     7     8    2
    15     8     9    1
    16     9    10    1
    17    10    11    2
    18    18    13   ar
    19    11     3    1
    20    10     5    1
@<TRIPOS>MOLECULE
*****
 18 20 0 0 0
SMALL
GASTEIGER

@<TRIPOS>ATOM
      1 O          63.8207   85.7373   16.2588 O.co2   1  UNL1       -0.6751
      2 S          64.2006   85.6570   14.8100 S.O     1  UNL1        0.0985
      3 C          63.8329   86.7711   13.8753 C.2     1  UNL1        0.3556
      4 N          64.1377   88.2262   14.0749 N.2     1  UNL1       -0.1811
      5 C          63.5891   88.9801   12.8999 C.2     1  UNL1        0.1012
      6 C          63.5926   90.4395   12.5534 C.2     1  UNL1        0.0202
      7 C          62.9523   90.9098   11.2811 C.2     1  UNL1       -0.0026
      8 C          62.3085   89.9207   10.3553 C.2     1  UNL1       -0.0197
      9 C          62.3050   88.4613   10.7018 C.3     1  UNL1        0.0735
     10 C          62.9453   87.9910   11.9741 C.2     1  UNL1        0.0869
     11 N          63.0960   86.6258   12.5769 N.2     1  UNL1       -0.1848
     12 C          64.9481   84.4625   14.2958 C.3     1  UNL1        0.3096
     13 C          64.2013   83.3250   13.6647 C.ar    1  UNL1        0.1186
     14 C          64.1647   83.1886   12.1713 C.ar    1  UNL1        0.0199
     15 C          63.4179   82.0510   11.5402 C.ar    1  UNL1        0.0030
     16 C          62.7077   81.0499   12.4024 C.ar    1  UNL1        0.0207
     17 C          62.7443   81.1864   13.8957 C.ar    1  UNL1        0.0986
     18 N          63.4911   82.3239   14.5268 N.ar    1  UNL1       -0.2430
@<TRIPOS>UNITY_ATOM_ATTR
1 1
charge -1
2 1
charge 1
@<TRIPOS>BOND
     1     1     2    2
     2     2    12    1
     3    12    13    1
     4    13    14   ar
     5    14    15   ar
     6    15    16   ar
     7    16    17   ar
     8    17    18   ar
     9     2     3    1
    10     3     4    2
    11     4     5    1
    12     5     6    2
    13     6     7    1
    14     7     8    2
    15     8     9    1
    16     9    10    1
    17    10    11    2
    18    18    13   ar
    19    11     3    1
    20    10     5    1
@<TRIPOS>MOLECULE
*****
 18 20 0 0 0
SMALL
GASTEIGER

@<TRIPOS>ATOM
      1 O          62.8498   86.4544   16.7367 O.co2   1  UNL1       -0.6751
      2 S          63.6133   86.1055   15.4936 S.O     1  UNL1        0.0985
      3 C          63.3586   84.8010   14.7983 C.2     1  UNL1        0.3556
      4 N          63.8574   84.4152   13.4373 N.2     1  UNL1       -0.1811
      5 C          63.3674   83.0291   13.1398 C.2     1  UNL1        0.1012
      6 C          63.5477   82.1348   11.9491 C.2     1  UNL1        0.0202
      7 C          62.9263   80.7697   11.9355 C.2     1  UNL1       -0.0026
      8 C          62.1247   80.2988   13.1126 C.2     1  UNL1       -0.0197
      9 C          61.9444   81.1930   14.3033 C.3     1  UNL1        0.0735
     10 C          62.5658   82.5582   14.3169 C.2     1  UNL1        0.0869
     11 N          62.5603   83.6533   15.3419 N.2     1  UNL1       -0.1848
     12 C          64.6314   87.0611   14.9458 C.3     1  UNL1        0.3096
     13 C          64.1984   88.1931   14.0620 C.ar    1  UNL1        0.1186
     14 C          64.5776   89.6025   14.4085 C.ar    1  UNL1        0.0199
     15 C          64.1446   90.7345   13.5247 C.ar    1  UNL1        0.0030
     16 C          63.3323   90.4571   12.2945 C.ar    1  UNL1        0.0207
     17 C          62.9532   89.0478   11.9480 C.ar    1  UNL1        0.0986
     18 N          63.3862   87.9158   12.8318 N.ar    1  UNL1       -0.2430
@<TRIPOS>UNITY_ATOM_ATTR
1 1
charge -1
2 1
charge 1
@<TRIPOS>BOND
     1     1     2    2
     2     2    12    1
     3    12    13    1
     4    13    14   ar
     5    14    15   ar
     6    15    16   ar
     7    16    17   ar
     8    17    18   ar
     9     2     3    1
    10     3     4    2
    11     4     5    1
    12     5     6    2
    13     6     7    1
    14     7     8    2
    15     8     9    1
    16     9    10    1
    17    10    11    2
    18    18    13   ar
    19    11     3    1
    20    10     5    1
@<TRIPOS>MOLECULE
*****
 18 20 0 0 0
SMALL
GASTEIGER

@<TRIPOS>ATOM
      1 O          63.6817   85.6393   16.3001 O.co2   1  UNL1       -0.6751
      2 S          64.1027   85.5827   14.8616 S.O     1  UNL1        0.0985
      3 C          63.7859   86.7245   13.9418 C.2     1  UNL1        0.3556
      4 N          63.0960   86.6216   12.6139 N.2     1  UNL1       -0.1811
      5 C          62.9870   88.0032   12.0399 C.2     1  UNL1        0.1012
      6 C          62.4014   88.5136   10.7568 C.2     1  UNL1        0.0202
      7 C          62.4383   89.9808   10.4469 C.2     1  UNL1       -0.0026
      8 C          63.0608   90.9375   11.4201 C.2     1  UNL1       -0.0197
      9 C          63.6464   90.4270   12.7032 C.3     1  UNL1        0.0735
     10 C          63.6096   88.9599   13.0131 C.2     1  UNL1        0.0869
     11 N          64.1033   88.1696   14.1886 N.2     1  UNL1       -0.1848
     12 C          64.8406   84.3842   14.3428 C.3     1  UNL1        0.3096
     13 C          64.0840   83.2515   13.7146 C.ar    1  UNL1        0.1186
     14 C          64.0144   83.1331   12.2209 C.ar    1  UNL1        0.0199
     15 C          63.2578   82.0004   11.5928 C.ar    1  UNL1        0.0030
     16 C          62.5706   80.9862   12.4584 C.ar    1  UNL1        0.0207
     17 C          62.6402   81.1047   13.9521 C.ar    1  UNL1        0.0986
     18 N          63.3968   82.2373   14.5802 N.ar    1  UNL1       -0.2430
@<TRIPOS>UNITY_ATOM_ATTR
1 1
charge -1
2 1
charge 1
@<TRIPOS>BOND
     1     1     2    2
     2     2    12    1
     3    12    13    1
     4    13    14   ar
     5    14    15   ar
     6    15    16   ar
     7    16    17   ar
     8    17    18   ar
     9     2     3    1
    10     3     4    2
    11     4     5    1
    12     5     6    2
    13     6     7    1
    14     7     8    2
    15     8     9    1
    16     9    10    1
    17    10    11    2
    18    18    13   ar
    19    11     3    1
    20    10     5    1
@<TRIPOS>MOLECULE
*****
 18 20 0 0 0
SMALL
GASTEIGER

@<TRIPOS>ATOM
      1 O          59.7187   89.1313   12.4681 O.co2   1  UNL1       -0.6751
      2 S          60.7508   89.6609   11.5172 S.O     1  UNL1        0.0985
      3 C          62.0601   90.1728   12.0403 C.2     1  UNL1        0.3556
      4 N          62.6903   89.8053   13.3509 N.2     1  UNL1       -0.1811
      5 C          63.9888   90.5475   13.4652 C.2     1  UNL1        0.1012
      6 C          65.0365   90.5777   14.5382 C.2     1  UNL1        0.0202
      7 C          66.2566   91.4341   14.3712 C.2     1  UNL1       -0.0026
      8 C          66.4289   92.2603   13.1312 C.2     1  UNL1       -0.0197
      9 C          65.3813   92.2301   12.0582 C.3     1  UNL1        0.0735
     10 C          64.1612   91.3737   12.2252 C.2     1  UNL1        0.0869
     11 N          62.9692   91.1421   11.3445 N.2     1  UNL1       -0.1848
     12 C          60.4735   89.6787   10.0432 C.3     1  UNL1        0.3096
     13 C          60.4613   88.3953    9.2668 C.ar    1  UNL1        0.1186
     14 C          61.5918   87.4200    9.4122 C.ar    1  UNL1        0.0199
     15 C          61.5796   86.1366    8.6358 C.ar    1  UNL1        0.0030
     16 C          60.4369   85.8285    7.7141 C.ar    1  UNL1        0.0207
     17 C          59.3066   86.8037    7.5688 C.ar    1  UNL1        0.0986
     18 N          59.3188   88.0871    8.3451 N.ar    1  UNL1       -0.2430
@<TRIPOS>UNITY_ATOM_ATTR
1 1
charge -1
2 1
charge 1
@<TRIPOS>BOND
     1     1     2    2
     2     2    12    1
     3    12    13    1
     4    13    14   ar
     5    14    15   ar
     6    15    16   ar
     7    16    17   ar
     8    17    18   ar
     9     2     3    1
    10     3     4    2
    11     4     5    1
    12     5     6    2
    13     6     7    1
    14     7     8    2
    15     8     9    1
    16     9    10    1
    17    10    11    2
    18    18    13   ar
    19    11     3    1
    20    10     5    1
@<TRIPOS>MOLECULE
*****
 18 20 0 0 0
SMALL
GASTEIGER

@<TRIPOS>ATOM
      1 O          63.8613   85.8973   16.3506 O.co2   1  UNL1       -0.6751
      2 S          64.1449   85.7307   14.8872 S.O     1  UNL1        0.0985
      3 C          63.8054   86.8322   13.9272 C.2     1  UNL1        0.3556
      4 N          63.0884   86.6722   12.6195 N.2     1  UNL1       -0.1811
      5 C          62.9632   88.0283   11.9906 C.2     1  UNL1        0.1012
      6 C          62.3493   88.4832   10.6998 C.2     1  UNL1        0.0202
      7 C          62.3753   89.9361   10.3280 C.2     1  UNL1       -0.0026
      8 C          63.0150   90.9341   11.2470 C.2     1  UNL1       -0.0197
      9 C          63.6288   90.4792   12.5378 C.3     1  UNL1        0.0735
     10 C          63.6029   89.0263   12.9096 C.2     1  UNL1        0.0869
     11 N          64.1235   88.2871   14.1065 N.2     1  UNL1       -0.1848
     12 C          64.7679   84.4625   14.3836 C.3     1  UNL1        0.3096
     13 C          63.8978   83.3330   13.9175 C.ar    1  UNL1        0.1186
     14 C          62.7391   82.8831   14.7572 C.ar    1  UNL1        0.0199
     15 C          61.8691   81.7536   14.2911 C.ar    1  UNL1        0.0030
     16 C          62.1577   81.0741   12.9853 C.ar    1  UNL1        0.0207
     17 C          63.3164   81.5240   12.1457 C.ar    1  UNL1        0.0986
     18 N          64.1864   82.6535   12.6118 N.ar    1  UNL1       -0.2430
@<TRIPOS>UNITY_ATOM_ATTR
1 1
charge -1
2 1
charge 1
@<TRIPOS>BOND
     1     1     2    2
     2     2    12    1
     3    12    13    1
     4    13    14   ar
     5    14    15   ar
     6    15    16   ar
     7    16    17   ar
     8    17    18   ar
     9     2     3    1
    10     3     4    2
    11     4     5    1
    12     5     6    2
    13     6     7    1
    14     7     8    2
    15     8     9    1
    16     9    10    1
    17    10    11    2
    18    18    13   ar
    19    11     3    1
    20    10     5    1
@<TRIPOS>MOLECULE
*****
 18 20 0 0 0
SMALL
GASTEIGER

@<TRIPOS>ATOM
      1 O          63.3482   85.9697   14.0265 O.co2   1  UNL1       -0.6751
      2 S          63.2083   85.3519   12.6668 S.O     1  UNL1        0.0985
      3 C          62.4095   86.0483   11.6053 C.2     1  UNL1        0.3556
      4 N          61.6343   85.3834   10.5067 N.2     1  UNL1       -0.1811
      5 C          60.9913   86.4559    9.6783 C.2     1  UNL1        0.1012
      6 C          60.1106   86.3950    8.4656 C.2     1  UNL1        0.0202
      7 C          59.6077   87.6620    7.8396 C.2     1  UNL1       -0.0026
      8 C          59.9855   88.9898    8.4263 C.2     1  UNL1       -0.0197
      9 C          60.8662   89.0507    9.6389 C.3     1  UNL1        0.0735
     10 C          61.3691   87.7837   10.2649 C.2     1  UNL1        0.0869
     11 N          62.2456   87.5318   11.4559 N.2     1  UNL1       -0.1848
     12 C          63.8673   84.0378   12.3688 C.3     1  UNL1        0.3096
     13 C          63.1925   82.7555   12.7564 C.ar    1  UNL1        0.1186
     14 C          62.3125   82.7081   13.9702 C.ar    1  UNL1        0.0199
     15 C          61.6378   81.4257   14.3578 C.ar    1  UNL1        0.0030
     16 C          61.8430   80.1907   13.5316 C.ar    1  UNL1        0.0207
     17 C          62.7230   80.2381   12.3178 C.ar    1  UNL1        0.0986
     18 N          63.3978   81.5205   11.9302 N.ar    1  UNL1       -0.2430
@<TRIPOS>UNITY_ATOM_ATTR
1 1
charge -1
2 1
charge 1
@<TRIPOS>BOND
     1     1     2    2
     2     2    12    1
     3    12    13    1
     4    13    14   ar
     5    14    15   ar
     6    15    16   ar
     7    16    17   ar
     8    17    18   ar
     9     2     3    1
    10     3     4    2
    11     4     5    1
    12     5     6    2
    13     6     7    1
    14     7     8    2
    15     8     9    1
    16     9    10    1
    17    10    11    2
    18    18    13   ar
    19    11     3    1
    20    10     5    1
