@<TRIPOS>MOLECULE
*****
 46 52 0 0 0
SMALL
GASTEIGER

@<TRIPOS>ATOM
      1 C          59.5177   88.6974    7.7120 C.3     1  UNL1        0.1543
      2 O          59.6529   88.9530   10.6981 O.2     1  UNL1       -0.2526
      3 C          60.7311   89.5519    9.8445 C.2     1  UNL1        0.3043
      4 N          60.6635   89.4242    8.3515 N.am    1  UNL1       -0.2822
      5 N          61.8770   90.2787   10.4839 N.am    1  UNL1       -0.2641
      6 C          61.9446   90.4065   11.9770 C.3     1  UNL1        0.0967
      7 C          63.0904   91.1332   12.6164 C.3     1  UNL1        0.0418
      8 C          64.1687   91.7322   11.7628 C.3     1  UNL1        0.0848
      9 C          64.1011   91.6044   10.2698 C.3     1  UNL1        0.0418
     10 C          62.9552   90.8776    9.6303 C.3     1  UNL1        0.0967
     11 H          61.3712   89.8173    7.7913 H       1  UNL1        0.1514
     12 N          65.3145   92.4589   12.4022 N.am    1  UNL1       -0.2422
     13 C          66.2948   93.3511   11.6999 C.2     1  UNL1        0.3310
     14 O          66.3011   93.6732   10.2349 O.2     1  UNL1       -0.2501
     15 N          67.2674   93.8647   12.7198 N.am    1  UNL1       -0.1647
     16 C          66.8883   93.2899   14.0525 C.2     1  UNL1        0.0706
     17 C          67.4862   93.4454   15.4193 C.3     1  UNL1        0.0705
     18 C          66.8772   92.7320   16.5899 C.2     1  UNL1       -0.0199
     19 C          65.6703   91.8632   16.3936 C.2     1  UNL1       -0.0029
     20 C          65.0723   91.7077   15.0267 C.2     1  UNL1        0.0156
     21 C          65.6814   92.4211   13.8562 C.2     1  UNL1        0.0668
     22 C          58.5789   89.4313    6.8009 C.2     1  UNL1        0.2439
     23 O          57.0976   89.2373    6.9361 O.2     1  UNL1       -0.2731
     24 N          59.1214   90.3591    5.7546 N.am    1  UNL1       -0.2781
     25 C          58.1827   91.0930    4.8434 C.3     1  UNL1        0.0948
     26 C          58.7252   92.0209    3.7971 C.3     1  UNL1        0.0375
     27 C          60.2064   92.2149    3.6620 C.3     1  UNL1        0.0609
     28 C          61.1452   91.4810    4.5731 C.3     1  UNL1        0.0375
     29 C          60.6027   90.5531    5.6194 C.3     1  UNL1        0.0948
     30 N          60.7489   93.1427    2.6157 N.3     1  UNL1       -0.2738
     31 C          61.9908   92.7755    1.8587 C.3     1  UNL1        0.0720
     32 C          62.5333   93.7034    0.8124 C.3     1  UNL1        0.0174
     33 C          61.8339   94.9985    0.5230 C.3     1  UNL1        0.0029
     34 C          60.5920   95.3656    1.2800 C.3     1  UNL1        0.0174
     35 C          60.0496   94.4378    2.3263 C.3     1  UNL1        0.0720
     36 C          59.3106   87.2369    7.9837 C.3     1  UNL1        0.0553
     37 C          60.4550   86.2778    7.8410 C.ar    1  UNL1       -0.0200
     38 C          60.7928   85.7081    6.4952 C.ar    1  UNL1       -0.0042
     39 C          61.9372   84.7490    6.3525 C.ar    1  UNL1       -0.0003
     40 C          62.7440   84.3596    7.5556 C.ar    1  UNL1       -0.0000
     41 C          62.4062   84.9293    8.9015 C.ar    1  UNL1       -0.0003
     42 C          63.2129   84.5400   10.1047 C.ar    1  UNL1       -0.0000
     43 C          62.8752   85.1097   11.4505 C.ar    1  UNL1       -0.0000
     44 C          61.7307   86.0687   11.5932 C.ar    1  UNL1       -0.0000
     45 C          60.9240   86.4581   10.3901 C.ar    1  UNL1       -0.0003
     46 C          61.2617   85.8884    9.0442 C.ar    1  UNL1       -0.0039
@<TRIPOS>BOND
     1     2     3    2
     2     3     4   am
     3     4     1    1
     4     1    36    1
     5    36    37    1
     6    37    38   ar
     7    38    39   ar
     8    39    40   ar
     9    40    41   ar
    10    41    42   ar
    11    42    43   ar
    12    43    44   ar
    13    44    45   ar
    14    45    46   ar
    15     1    22    1
    16    22    23    2
    17    22    24   am
    18    24    25    1
    19    25    26    1
    20    26    27    1
    21    27    30    1
    22    30    31    1
    23    31    32    1
    24    32    33    1
    25    33    34    1
    26    34    35    1
    27    27    28    1
    28    28    29    1
    29     3     5   am
    30     5     6    1
    31     6     7    1
    32     7     8    1
    33     8    12    1
    34    12    13   am
    35    13    14    2
    36    13    15    1
    37    15    16    2
    38    16    17    1
    39    17    18    1
    40    18    19    2
    41    19    20    1
    42    20    21    2
    43     8     9    1
    44     9    10    1
    45    46    37   ar
    46    29    24    1
    47    10     5    1
    48    46    41   ar
    49    35    30    1
    50    21    12    1
    51    21    16    1
    52     4    11    1
@<TRIPOS>MOLECULE
*****
 46 52 0 0 0
SMALL
GASTEIGER

@<TRIPOS>ATOM
      1 C          60.0166   88.4709    8.3745 C.3     1  UNL1        0.1543
      2 O          57.9359   89.9142    6.7659 O.2     1  UNL1       -0.2526
      3 C          59.3866   90.0483    6.4086 C.2     1  UNL1        0.3043
      4 N          60.4269   89.3267    7.2129 N.am    1  UNL1       -0.2822
      5 N          59.7969   90.9041    5.2470 N.am    1  UNL1       -0.2641
      6 C          58.7565   91.6258    4.4427 C.3     1  UNL1        0.0967
      7 C          59.1668   92.4816    3.2811 C.3     1  UNL1        0.0418
      8 C          60.6175   92.6157    2.9238 C.3     1  UNL1        0.0848
      9 C          61.6578   91.8941    3.7281 C.3     1  UNL1        0.0418
     10 C          61.2475   91.0382    4.8897 C.3     1  UNL1        0.0967
     11 H          61.3790   89.4148    6.9783 H       1  UNL1        0.1514
     12 N          61.0278   93.4715    1.7623 N.am    1  UNL1       -0.2422
     13 C          60.1289   93.9570    0.6638 C.2     1  UNL1        0.3310
     14 O          58.6620   93.6718    0.5343 O.2     1  UNL1       -0.2501
     15 N          60.9546   94.7776   -0.2822 N.am    1  UNL1       -0.1647
     16 C          62.3637   94.7993    0.2316 C.2     1  UNL1        0.0706
     17 C          63.6114   95.4498   -0.2879 C.3     1  UNL1        0.0705
     18 C          64.9045   95.2931    0.4561 C.2     1  UNL1       -0.0199
     19 C          64.9497   94.4859    1.7196 C.2     1  UNL1       -0.0029
     20 C          63.7020   93.8354    2.2391 C.2     1  UNL1        0.0156
     21 C          62.4089   93.9921    1.4951 C.2     1  UNL1        0.0668
     22 C          59.8998   89.0713    9.7441 C.2     1  UNL1        0.2439
     23 O          58.5906   89.0237   10.4747 O.2     1  UNL1       -0.2731
     24 N          61.0921   89.7194   10.3831 N.am    1  UNL1       -0.2781
     25 C          60.9753   90.3199   11.7526 C.3     1  UNL1        0.0948
     26 C          62.1677   90.9680   12.3916 C.3     1  UNL1        0.0375
     27 C          63.4768   91.0157   11.6610 C.3     1  UNL1        0.0609
     28 C          63.5936   90.4152   10.2914 C.3     1  UNL1        0.0375
     29 C          62.4013   89.7671    9.6524 C.3     1  UNL1        0.0948
     30 N          64.6691   91.6638   12.3000 N.3     1  UNL1       -0.2738
     31 C          65.1486   91.1947   13.6416 C.3     1  UNL1        0.0720
     32 C          66.3410   91.8429   14.2806 C.3     1  UNL1        0.0174
     33 C          67.0538   92.9600   13.5779 C.3     1  UNL1        0.0029
     34 C          66.5743   93.4291   12.2362 C.3     1  UNL1        0.0174
     35 C          65.3820   92.7810   11.5973 C.3     1  UNL1        0.0720
     36 C          59.7232   87.0147    8.1665 C.3     1  UNL1        0.0553
     37 C          60.8499   86.0401    7.9913 C.ar    1  UNL1       -0.0200
     38 C          61.1807   85.5135    6.6263 C.ar    1  UNL1       -0.0042
     39 C          62.3074   84.5389    6.4512 C.ar    1  UNL1       -0.0003
     40 C          63.1034   84.0910    7.6410 C.ar    1  UNL1       -0.0000
     41 C          62.7727   84.6176    9.0061 C.ar    1  UNL1       -0.0003
     42 C          63.5687   84.1696   10.1959 C.ar    1  UNL1       -0.0000
     43 C          63.2379   84.6962   11.5609 C.ar    1  UNL1       -0.0000
     44 C          62.1112   85.6708   11.7360 C.ar    1  UNL1       -0.0000
     45 C          61.3152   86.1188   10.5462 C.ar    1  UNL1       -0.0003
     46 C          61.6459   85.5922    9.1812 C.ar    1  UNL1       -0.0039
@<TRIPOS>BOND
     1     2     3    2
     2     3     4   am
     3     4     1    1
     4     1    36    1
     5    36    37    1
     6    37    38   ar
     7    38    39   ar
     8    39    40   ar
     9    40    41   ar
    10    41    42   ar
    11    42    43   ar
    12    43    44   ar
    13    44    45   ar
    14    45    46   ar
    15     1    22    1
    16    22    23    2
    17    22    24   am
    18    24    25    1
    19    25    26    1
    20    26    27    1
    21    27    30    1
    22    30    31    1
    23    31    32    1
    24    32    33    1
    25    33    34    1
    26    34    35    1
    27    27    28    1
    28    28    29    1
    29     3     5   am
    30     5     6    1
    31     6     7    1
    32     7     8    1
    33     8    12    1
    34    12    13   am
    35    13    14    2
    36    13    15    1
    37    15    16    2
    38    16    17    1
    39    17    18    1
    40    18    19    2
    41    19    20    1
    42    20    21    2
    43     8     9    1
    44     9    10    1
    45    46    37   ar
    46    29    24    1
    47    10     5    1
    48    46    41   ar
    49    35    30    1
    50    21    12    1
    51    21    16    1
    52     4    11    1
@<TRIPOS>MOLECULE
*****
 46 52 0 0 0
SMALL
GASTEIGER

@<TRIPOS>ATOM
      1 C          60.0219   88.4180    8.4109 C.3     1  UNL1        0.1543
      2 O          57.9276   89.8347    6.7964 O.2     1  UNL1       -0.2526
      3 C          59.3777   89.9912    6.4461 C.2     1  UNL1        0.3043
      4 N          60.4249   89.2828    7.2533 N.am    1  UNL1       -0.2822
      5 N          59.7806   90.8560    5.2887 N.am    1  UNL1       -0.2641
      6 C          58.7334   91.5644    4.4814 C.3     1  UNL1        0.0967
      7 C          59.1364   92.4292    3.3240 C.3     1  UNL1        0.0418
      8 C          60.5865   92.5856    2.9737 C.3     1  UNL1        0.0848
      9 C          61.6337   91.8773    3.7809 C.3     1  UNL1        0.0418
     10 C          61.2308   91.0124    4.9385 C.3     1  UNL1        0.0967
     11 H          61.3766   89.3855    7.0235 H       1  UNL1        0.1514
     12 N          60.9895   93.4504    1.8163 N.am    1  UNL1       -0.2422
     13 C          62.3473   94.0474    1.5924 C.2     1  UNL1        0.3310
     14 O          63.5404   93.8844    2.4867 O.2     1  UNL1       -0.2501
     15 N          62.3024   94.8360    0.3172 N.am    1  UNL1       -0.1647
     16 C          60.9169   94.7265   -0.2471 C.2     1  UNL1        0.0706
     17 C          60.2893   95.2958   -1.4847 C.3     1  UNL1        0.0705
     18 C          58.8502   95.0088   -1.7960 C.2     1  UNL1       -0.0199
     19 C          58.0389   94.1525   -0.8696 C.2     1  UNL1       -0.0029
     20 C          58.6664   93.5831    0.3682 C.2     1  UNL1        0.0156
     21 C          60.1054   93.8701    0.6794 C.2     1  UNL1        0.0668
     22 C          59.9037   89.0101    9.7840 C.2     1  UNL1        0.2439
     23 O          58.5967   88.9480   10.5175 O.2     1  UNL1       -0.2731
     24 N          61.0923   89.6642   10.4236 N.am    1  UNL1       -0.2781
     25 C          60.9741   90.2563   11.7967 C.3     1  UNL1        0.0948
     26 C          62.1628   90.9105   12.4363 C.3     1  UNL1        0.0375
     27 C          63.4697   90.9726   11.7028 C.3     1  UNL1        0.0609
     28 C          63.5880   90.3805   10.3297 C.3     1  UNL1        0.0375
     29 C          62.3993   89.7263    9.6901 C.3     1  UNL1        0.0948
     30 N          64.6584   91.6267   12.3424 N.3     1  UNL1       -0.2738
     31 C          65.4006   92.7087   11.6154 C.3     1  UNL1        0.0720
     32 C          66.5893   93.3628   12.2551 C.3     1  UNL1        0.0174
     33 C          67.0357   92.9350   13.6217 C.3     1  UNL1        0.0029
     34 C          66.2935   91.8531   14.3487 C.3     1  UNL1        0.0174
     35 C          65.1049   91.1989   13.7091 C.3     1  UNL1        0.0720
     36 C          59.7373   86.9612    8.1952 C.3     1  UNL1        0.0553
     37 C          60.8700   85.9938    8.0183 C.ar    1  UNL1       -0.0200
     38 C          61.2036   85.4713    6.6524 C.ar    1  UNL1       -0.0042
     39 C          62.3363   84.5040    6.4755 C.ar    1  UNL1       -0.0003
     40 C          63.1353   84.0592    7.6645 C.ar    1  UNL1       -0.0000
     41 C          62.8017   84.5816    9.0304 C.ar    1  UNL1       -0.0003
     42 C          63.6007   84.1368   10.2194 C.ar    1  UNL1       -0.0000
     43 C          63.2670   84.6593   11.5852 C.ar    1  UNL1       -0.0000
     44 C          62.1344   85.6266   11.7621 C.ar    1  UNL1       -0.0000
     45 C          61.3354   86.0715   10.5732 C.ar    1  UNL1       -0.0003
     46 C          61.6690   85.5490    9.2073 C.ar    1  UNL1       -0.0039
@<TRIPOS>BOND
     1     2     3    2
     2     3     4   am
     3     4     1    1
     4     1    36    1
     5    36    37    1
     6    37    38   ar
     7    38    39   ar
     8    39    40   ar
     9    40    41   ar
    10    41    42   ar
    11    42    43   ar
    12    43    44   ar
    13    44    45   ar
    14    45    46   ar
    15     1    22    1
    16    22    23    2
    17    22    24   am
    18    24    25    1
    19    25    26    1
    20    26    27    1
    21    27    30    1
    22    30    31    1
    23    31    32    1
    24    32    33    1
    25    33    34    1
    26    34    35    1
    27    27    28    1
    28    28    29    1
    29     3     5   am
    30     5     6    1
    31     6     7    1
    32     7     8    1
    33     8    12    1
    34    12    13   am
    35    13    14    2
    36    13    15    1
    37    15    16    2
    38    16    17    1
    39    17    18    1
    40    18    19    2
    41    19    20    1
    42    20    21    2
    43     8     9    1
    44     9    10    1
    45    46    37   ar
    46    29    24    1
    47    10     5    1
    48    46    41   ar
    49    35    30    1
    50    21    12    1
    51    21    16    1
    52     4    11    1
@<TRIPOS>MOLECULE
*****
 46 52 0 0 0
SMALL
GASTEIGER

@<TRIPOS>ATOM
      1 C          63.5304   95.3184   -1.6445 C.3     1  UNL1        0.1543
      2 O          61.6255   93.4774   -3.0525 O.2     1  UNL1       -0.2526
      3 C          61.1184   94.7373   -2.4158 C.2     1  UNL1        0.3043
      4 N          62.0708   95.6578   -1.7118 N.am    1  UNL1       -0.2822
      5 N          59.6589   95.0767   -2.4830 N.am    1  UNL1       -0.2641
      6 C          58.7064   94.1562   -3.1870 C.3     1  UNL1        0.0967
      7 C          57.2469   94.4957   -3.2542 C.3     1  UNL1        0.0418
      8 C          56.7398   95.7556   -2.6175 C.3     1  UNL1        0.0848
      9 C          57.6922   96.6761   -1.9136 C.3     1  UNL1        0.0418
     10 C          59.1518   96.3367   -1.8463 C.3     1  UNL1        0.0967
     11 H          61.7379   96.4847   -1.2939 H       1  UNL1        0.1514
     12 N          55.2803   96.0950   -2.6848 N.am    1  UNL1       -0.2422
     13 C          54.4091   96.4753   -1.5243 C.2     1  UNL1        0.3310
     14 O          54.8446   96.5828   -0.0930 O.2     1  UNL1       -0.2501
     15 N          53.0260   96.7291   -2.0465 N.am    1  UNL1       -0.1647
     16 C          53.0423   96.5057   -3.5298 C.2     1  UNL1        0.0706
     17 C          51.9687   96.6086   -4.5721 C.3     1  UNL1        0.0705
     18 C          52.2881   96.3195   -6.0090 C.2     1  UNL1       -0.0199
     19 C          53.6813   95.9277   -6.4034 C.2     1  UNL1       -0.0029
     20 C          54.7551   95.8248   -5.3610 C.2     1  UNL1        0.0156
     21 C          54.4356   96.1139   -3.9242 C.2     1  UNL1        0.0668
     22 C          64.0918   94.6614   -0.4185 C.2     1  UNL1        0.2439
     23 O          65.5743   94.6423   -0.1900 O.2     1  UNL1       -0.2731
     24 N          63.1710   94.0234    0.5789 N.am    1  UNL1       -0.2781
     25 C          63.7325   93.3664    1.8049 C.3     1  UNL1        0.0948
     26 C          62.8115   92.7285    2.8024 C.3     1  UNL1        0.0375
     27 C          61.3292   92.7475    2.5739 C.3     1  UNL1        0.0609
     28 C          60.7677   93.4045    1.3479 C.3     1  UNL1        0.0375
     29 C          61.6886   94.0425    0.3504 C.3     1  UNL1        0.0948
     30 N          60.4083   92.1096    3.5714 N.3     1  UNL1       -0.2738
     31 C          58.9470   92.4477    3.5664 C.3     1  UNL1        0.0720
     32 C          58.0261   91.8097    4.5640 C.3     1  UNL1        0.0174
     33 C          58.5666   90.8336    5.5664 C.3     1  UNL1        0.0029
     34 C          60.0280   90.4955    5.5714 C.3     1  UNL1        0.0174
     35 C          60.9489   91.1334    4.5739 C.3     1  UNL1        0.0720
     36 C          64.4284   95.6360   -2.8032 C.3     1  UNL1        0.0553
     37 C          63.8763   95.6512   -4.1979 C.ar    1  UNL1       -0.0200
     38 C          63.1037   96.8408   -4.6857 C.ar    1  UNL1       -0.0042
     39 C          62.5517   96.8560   -6.0803 C.ar    1  UNL1       -0.0003
     40 C          62.7721   95.6817   -6.9871 C.ar    1  UNL1       -0.0000
     41 C          63.5448   94.4920   -6.4993 C.ar    1  UNL1       -0.0003
     42 C          63.7652   93.3177   -7.4061 C.ar    1  UNL1       -0.0000
     43 C          64.5378   92.1282   -6.9183 C.ar    1  UNL1       -0.0000
     44 C          65.0899   92.1129   -5.5236 C.ar    1  UNL1       -0.0000
     45 C          64.8694   93.2872   -4.6168 C.ar    1  UNL1       -0.0003
     46 C          64.0968   94.4768   -5.1047 C.ar    1  UNL1       -0.0039
@<TRIPOS>BOND
     1     2     3    2
     2     3     4   am
     3     4     1    1
     4     1    36    1
     5    36    37    1
     6    37    38   ar
     7    38    39   ar
     8    39    40   ar
     9    40    41   ar
    10    41    42   ar
    11    42    43   ar
    12    43    44   ar
    13    44    45   ar
    14    45    46   ar
    15     1    22    1
    16    22    23    2
    17    22    24   am
    18    24    25    1
    19    25    26    1
    20    26    27    1
    21    27    30    1
    22    30    31    1
    23    31    32    1
    24    32    33    1
    25    33    34    1
    26    34    35    1
    27    27    28    1
    28    28    29    1
    29     3     5   am
    30     5     6    1
    31     6     7    1
    32     7     8    1
    33     8    12    1
    34    12    13   am
    35    13    14    2
    36    13    15    1
    37    15    16    2
    38    16    17    1
    39    17    18    1
    40    18    19    2
    41    19    20    1
    42    20    21    2
    43     8     9    1
    44     9    10    1
    45    46    37   ar
    46    29    24    1
    47    10     5    1
    48    46    41   ar
    49    35    30    1
    50    21    12    1
    51    21    16    1
    52     4    11    1
@<TRIPOS>MOLECULE
*****
 46 52 0 0 0
SMALL
GASTEIGER

@<TRIPOS>ATOM
      1 C          59.9872   89.6307    7.8095 C.3     1  UNL1        0.1543
      2 O          58.2614   91.1696    5.8981 O.2     1  UNL1       -0.2526
      3 C          59.7251   91.0002    5.6173 C.2     1  UNL1        0.3043
      4 N          60.5880   90.2308    6.5730 N.am    1  UNL1       -0.2822
      5 N          60.3259   91.6002    4.3808 N.am    1  UNL1       -0.2641
      6 C          59.4630   92.3696    3.4250 C.3     1  UNL1        0.0967
      7 C          60.0638   92.9696    2.1885 C.3     1  UNL1        0.0418
      8 C          61.5275   92.8003    1.9077 C.3     1  UNL1        0.0848
      9 C          62.3904   92.0309    2.8634 C.3     1  UNL1        0.0418
     10 C          61.7896   91.4308    4.1000 C.3     1  UNL1        0.0967
     11 H          61.5487   90.1197    6.3886 H       1  UNL1        0.1514
     12 N          62.1283   93.4003    0.6712 N.am    1  UNL1       -0.2422
     13 C          61.6821   93.1466   -0.7383 C.2     1  UNL1        0.3310
     14 O          60.5568   92.2483   -1.1586 O.2     1  UNL1       -0.2501
     15 N          62.5588   93.9488   -1.6536 N.am    1  UNL1       -0.1647
     16 C          63.5469   94.6984   -0.8098 C.2     1  UNL1        0.0706
     17 C          64.6544   95.6458   -1.1641 C.3     1  UNL1        0.0705
     18 C          65.4960   96.2543   -0.0817 C.2     1  UNL1       -0.0199
     19 C          65.2299   95.9153    1.3550 C.2     1  UNL1       -0.0029
     20 C          64.1223   94.9678    1.7094 C.2     1  UNL1        0.0156
     21 C          63.2808   94.3594    0.6270 C.2     1  UNL1        0.0668
     22 C          59.7373   88.1534    7.8810 C.2     1  UNL1        0.2439
     23 O          58.6371   87.5387    7.0675 O.2     1  UNL1       -0.2731
     24 N          60.5875   87.2909    8.7659 N.am    1  UNL1       -0.2781
     25 C          60.3376   85.8136    8.8374 C.3     1  UNL1        0.0948
     26 C          61.1879   84.9511    9.7224 C.3     1  UNL1        0.0375
     27 C          62.2880   85.5658   10.5359 C.3     1  UNL1        0.0609
     28 C          62.5379   87.0432   10.4644 C.3     1  UNL1        0.0375
     29 C          61.6877   87.9057    9.5795 C.3     1  UNL1        0.0948
     30 N          63.1382   84.7033   11.4208 N.3     1  UNL1       -0.2738
     31 C          63.4178   85.1238   12.8333 C.3     1  UNL1        0.0720
     32 C          64.2680   84.2612   13.7182 C.3     1  UNL1        0.0174
     33 C          64.8386   82.9782   13.1907 C.3     1  UNL1        0.0029
     34 C          64.5590   82.5577   11.7783 C.3     1  UNL1        0.0174
     35 C          63.7088   83.4202   10.8933 C.3     1  UNL1        0.0720
     36 C          59.6363   90.5080    8.9746 C.3     1  UNL1        0.0553
     37 C          60.1259   90.1606   10.3492 C.ar    1  UNL1       -0.0200
     38 C          59.2317   89.4200   11.2989 C.ar    1  UNL1       -0.0042
     39 C          59.7212   89.0726   12.6735 C.ar    1  UNL1       -0.0003
     40 C          61.1049   89.4658   13.0985 C.ar    1  UNL1       -0.0000
     41 C          61.9992   90.2064   12.1488 C.ar    1  UNL1       -0.0003
     42 C          63.3829   90.5996   12.5738 C.ar    1  UNL1       -0.0000
     43 C          64.2771   91.3401   11.6242 C.ar    1  UNL1       -0.0000
     44 C          63.7876   91.6875   10.2495 C.ar    1  UNL1       -0.0000
     45 C          62.4039   91.2944    9.8245 C.ar    1  UNL1       -0.0003
     46 C          61.5097   90.5538   10.7742 C.ar    1  UNL1       -0.0039
@<TRIPOS>BOND
     1     2     3    2
     2     3     4   am
     3     4     1    1
     4     1    36    1
     5    36    37    1
     6    37    38   ar
     7    38    39   ar
     8    39    40   ar
     9    40    41   ar
    10    41    42   ar
    11    42    43   ar
    12    43    44   ar
    13    44    45   ar
    14    45    46   ar
    15     1    22    1
    16    22    23    2
    17    22    24   am
    18    24    25    1
    19    25    26    1
    20    26    27    1
    21    27    30    1
    22    30    31    1
    23    31    32    1
    24    32    33    1
    25    33    34    1
    26    34    35    1
    27    27    28    1
    28    28    29    1
    29     3     5   am
    30     5     6    1
    31     6     7    1
    32     7     8    1
    33     8    12    1
    34    12    13   am
    35    13    14    2
    36    13    15    1
    37    15    16    2
    38    16    17    1
    39    17    18    1
    40    18    19    2
    41    19    20    1
    42    20    21    2
    43     8     9    1
    44     9    10    1
    45    46    37   ar
    46    29    24    1
    47    10     5    1
    48    46    41   ar
    49    35    30    1
    50    21    12    1
    51    21    16    1
    52     4    11    1
@<TRIPOS>MOLECULE
*****
 46 52 0 0 0
SMALL
GASTEIGER

@<TRIPOS>ATOM
      1 C          60.0409   89.5735    7.7631 C.3     1  UNL1        0.1543
      2 O          58.3995   91.2231    5.8698 O.2     1  UNL1       -0.2526
      3 C          59.8496   90.9709    5.5811 C.2     1  UNL1        0.3043
      4 N          60.6704   90.1461    6.5278 N.am    1  UNL1       -0.2822
      5 N          60.4791   91.5434    4.3458 N.am    1  UNL1       -0.2641
      6 C          59.6584   92.3682    3.3991 C.3     1  UNL1        0.0967
      7 C          60.2879   92.9407    2.1639 C.3     1  UNL1        0.0418
      8 C          61.7380   92.6884    1.8752 C.3     1  UNL1        0.0848
      9 C          62.5588   91.8636    2.8218 C.3     1  UNL1        0.0418
     10 C          61.9293   91.2911    4.0572 C.3     1  UNL1        0.0967
     11 H          61.6222   89.9805    6.3383 H       1  UNL1        0.1514
     12 N          62.3675   93.2609    0.6399 N.am    1  UNL1       -0.2422
     13 C          63.7747   93.7667    0.5207 C.2     1  UNL1        0.3310
     14 O          64.7993   93.7887    1.6160 O.2     1  UNL1       -0.2501
     15 N          63.9773   94.2465   -0.8859 N.am    1  UNL1       -0.1647
     16 C          62.6953   94.0374   -1.6362 C.2     1  UNL1        0.0706
     17 C          62.3053   94.3228   -3.0561 C.3     1  UNL1        0.0705
     18 C          60.9204   93.9992   -3.5332 C.2     1  UNL1       -0.0199
     19 C          59.9256   93.3901   -2.5902 C.2     1  UNL1       -0.0029
     20 C          60.3156   93.1045   -1.1701 C.2     1  UNL1        0.0156
     21 C          61.7004   93.4282   -0.6931 C.2     1  UNL1        0.0668
     22 C          59.7922   88.0977    7.8630 C.2     1  UNL1        0.2439
     23 O          58.7059   87.4632    7.0460 O.2     1  UNL1       -0.2731
     24 N          60.6296   87.2563    8.7799 N.am    1  UNL1       -0.2781
     25 C          60.3808   85.7805    8.8798 C.3     1  UNL1        0.0948
     26 C          61.2184   84.9391    9.7968 C.3     1  UNL1        0.0375
     27 C          62.3046   85.5736   10.6138 C.3     1  UNL1        0.0609
     28 C          62.5533   87.0495   10.5139 C.3     1  UNL1        0.0375
     29 C          61.7159   87.8908    9.5970 C.3     1  UNL1        0.0948
     30 N          63.1420   84.7323   11.5307 N.3     1  UNL1       -0.2738
     31 C          63.6587   83.4030   11.0660 C.3     1  UNL1        0.0720
     32 C          64.4962   82.5616   11.9830 C.3     1  UNL1        0.0174
     33 C          64.8169   83.0496   13.3646 C.3     1  UNL1        0.0029
     34 C          64.3002   84.3789   13.8294 C.3     1  UNL1        0.0174
     35 C          63.4628   85.2202   12.9125 C.3     1  UNL1        0.0720
     36 C          59.6602   90.4768    8.8985 C.3     1  UNL1        0.0553
     37 C          60.1260   90.1687   10.2906 C.ar    1  UNL1       -0.0200
     38 C          59.2137   89.4595   11.2470 C.ar    1  UNL1       -0.0042
     39 C          59.6795   89.1514   12.6392 C.ar    1  UNL1       -0.0003
     40 C          61.0575   89.5525   13.0750 C.ar    1  UNL1       -0.0000
     41 C          61.9699   90.2618   12.1186 C.ar    1  UNL1       -0.0003
     42 C          63.3480   90.6630   12.5544 C.ar    1  UNL1       -0.0000
     43 C          64.2603   91.3722   11.5981 C.ar    1  UNL1       -0.0000
     44 C          63.7945   91.6803   10.2059 C.ar    1  UNL1       -0.0000
     45 C          62.4164   91.2792    9.7701 C.ar    1  UNL1       -0.0003
     46 C          61.5041   90.5699   10.7265 C.ar    1  UNL1       -0.0039
@<TRIPOS>BOND
     1     2     3    2
     2     3     4   am
     3     4     1    1
     4     1    36    1
     5    36    37    1
     6    37    38   ar
     7    38    39   ar
     8    39    40   ar
     9    40    41   ar
    10    41    42   ar
    11    42    43   ar
    12    43    44   ar
    13    44    45   ar
    14    45    46   ar
    15     1    22    1
    16    22    23    2
    17    22    24   am
    18    24    25    1
    19    25    26    1
    20    26    27    1
    21    27    30    1
    22    30    31    1
    23    31    32    1
    24    32    33    1
    25    33    34    1
    26    34    35    1
    27    27    28    1
    28    28    29    1
    29     3     5   am
    30     5     6    1
    31     6     7    1
    32     7     8    1
    33     8    12    1
    34    12    13   am
    35    13    14    2
    36    13    15    1
    37    15    16    2
    38    16    17    1
    39    17    18    1
    40    18    19    2
    41    19    20    1
    42    20    21    2
    43     8     9    1
    44     9    10    1
    45    46    37   ar
    46    29    24    1
    47    10     5    1
    48    46    41   ar
    49    35    30    1
    50    21    12    1
    51    21    16    1
    52     4    11    1
@<TRIPOS>MOLECULE
*****
 46 52 0 0 0
SMALL
GASTEIGER

@<TRIPOS>ATOM
      1 C          59.7129   88.8500    7.7298 C.3     1  UNL1        0.1543
      2 O          59.3762   88.6359   10.7032 O.2     1  UNL1       -0.2526
      3 C          60.6018   89.2852   10.1320 C.2     1  UNL1        0.3043
      4 N          60.7702   89.3923    8.6453 N.am    1  UNL1       -0.2822
      5 N          61.6591   89.8274   11.0474 N.am    1  UNL1       -0.2641
      6 C          61.4908   89.7204   12.5342 C.3     1  UNL1        0.0967
      7 C          62.5481   90.2626   13.4496 C.3     1  UNL1        0.0418
      8 C          63.7737   90.9119   12.8784 C.3     1  UNL1        0.0848
      9 C          63.9420   91.0190   11.3918 C.3     1  UNL1        0.0418
     10 C          62.8847   90.4768   10.4762 C.3     1  UNL1        0.0967
     11 H          61.5746   89.8185    8.2705 H       1  UNL1        0.1514
     12 N          64.8309   91.4542   13.7939 N.am    1  UNL1       -0.2422
     13 C          64.6402   91.8382   15.2314 C.2     1  UNL1        0.3310
     14 O          63.3587   91.7474   16.0056 O.2     1  UNL1       -0.2501
     15 N          65.9560   92.3290   15.7585 N.am    1  UNL1       -0.1647
     16 C          66.9599   92.2483   14.6469 C.2     1  UNL1        0.0706
     17 C          68.4173   92.5973   14.5835 C.3     1  UNL1        0.0705
     18 C          69.1795   92.4056   13.3058 C.2     1  UNL1       -0.0199
     19 C          68.4842   91.8650   12.0916 C.2     1  UNL1       -0.0029
     20 C          67.0267   91.5160   12.1550 C.2     1  UNL1        0.0156
     21 C          66.2646   91.7076   13.4327 C.2     1  UNL1        0.0668
     22 C          58.9537   89.7778    6.8282 C.2     1  UNL1        0.2439
     23 O          57.4823   89.9856    7.0331 O.2     1  UNL1       -0.2731
     24 N          59.6659   90.4978    5.7217 N.am    1  UNL1       -0.2781
     25 C          58.9068   91.4256    4.8200 C.3     1  UNL1        0.0948
     26 C          59.6191   92.1455    3.7135 C.3     1  UNL1        0.0375
     27 C          61.0904   91.9377    3.5086 C.3     1  UNL1        0.0609
     28 C          61.8495   91.0099    4.4103 C.3     1  UNL1        0.0375
     29 C          61.1373   90.2900    5.5168 C.3     1  UNL1        0.0948
     30 N          61.8026   92.6577    2.4021 N.3     1  UNL1       -0.2738
     31 C          61.0863   92.9559    1.1184 C.3     1  UNL1        0.0720
     32 C          61.7986   93.6759    0.0118 C.3     1  UNL1        0.0174
     33 C          63.2271   94.0976    0.1891 C.3     1  UNL1        0.0029
     34 C          63.9434   93.7995    1.4728 C.3     1  UNL1        0.0174
     35 C          63.2312   93.0795    2.5793 C.3     1  UNL1        0.0720
     36 C          59.4147   87.3800    7.7159 C.3     1  UNL1        0.0553
     37 C          60.5329   86.3892    7.5827 C.ar    1  UNL1       -0.0200
     38 C          60.9097   85.8609    6.2303 C.ar    1  UNL1       -0.0042
     39 C          62.0279   84.8701    6.0970 C.ar    1  UNL1       -0.0003
     40 C          62.7694   84.4075    7.3161 C.ar    1  UNL1       -0.0000
     41 C          62.3926   84.9357    8.6686 C.ar    1  UNL1       -0.0003
     42 C          63.1341   84.4731    9.8876 C.ar    1  UNL1       -0.0000
     43 C          62.7573   85.0014   11.2400 C.ar    1  UNL1       -0.0000
     44 C          61.6391   85.9923   11.3733 C.ar    1  UNL1       -0.0000
     45 C          60.8976   86.4549   10.1542 C.ar    1  UNL1       -0.0003
     46 C          61.2744   85.9266    8.8018 C.ar    1  UNL1       -0.0039
@<TRIPOS>BOND
     1     2     3    2
     2     3     4   am
     3     4     1    1
     4     1    36    1
     5    36    37    1
     6    37    38   ar
     7    38    39   ar
     8    39    40   ar
     9    40    41   ar
    10    41    42   ar
    11    42    43   ar
    12    43    44   ar
    13    44    45   ar
    14    45    46   ar
    15     1    22    1
    16    22    23    2
    17    22    24   am
    18    24    25    1
    19    25    26    1
    20    26    27    1
    21    27    30    1
    22    30    31    1
    23    31    32    1
    24    32    33    1
    25    33    34    1
    26    34    35    1
    27    27    28    1
    28    28    29    1
    29     3     5   am
    30     5     6    1
    31     6     7    1
    32     7     8    1
    33     8    12    1
    34    12    13   am
    35    13    14    2
    36    13    15    1
    37    15    16    2
    38    16    17    1
    39    17    18    1
    40    18    19    2
    41    19    20    1
    42    20    21    2
    43     8     9    1
    44     9    10    1
    45    46    37   ar
    46    29    24    1
    47    10     5    1
    48    46    41   ar
    49    35    30    1
    50    21    12    1
    51    21    16    1
    52     4    11    1
