@<TRIPOS>MOLECULE
*****
 38 40 0 0 0
SMALL
GASTEIGER

@<TRIPOS>ATOM
      1 C          61.0617   88.3989   10.8721 C.2     1  UNL1        0.1417
      2 C          59.9439   88.3403    9.8736 C.3     1  UNL1        0.3069
      3 S          59.8242   87.1645    8.9499 S.O     1  UNL1        0.0630
      4 O          58.7064   87.1059    7.9514 O.co2   1  UNL1       -0.6771
      5 C          60.8223   86.0473    9.0248 C.2     1  UNL1        0.2273
      6 C          61.9401   86.1059   10.0233 C.2     1  UNL1        0.0743
      7 C          62.0598   87.2817   10.9469 C.2     1  UNL1        0.2119
      8 O          63.1777   87.3403   11.9455 O.2     1  UNL1       -0.2855
      9 N          61.1814   89.5747   11.7958 N.pl3   1  UNL1       -0.2291
     10 C          62.4527   90.3697   11.8369 C.3     1  UNL1        0.1384
     11 C          63.7241   91.1648   11.8781 C.ar    1  UNL1       -0.0010
     12 C          64.1312   91.9901   10.6935 C.ar    1  UNL1       -0.0026
     13 C          65.4025   92.7851   10.7346 C.ar    1  UNL1       -0.0006
     14 C          66.2667   92.7548   11.9602 C.ar    1  UNL1       -0.0043
     15 C          65.8596   91.9295   13.1447 C.ar    1  UNL1       -0.0231
     16 C          64.5883   91.1345   13.1037 C.ar    1  UNL1       -0.0068
     17 C          66.7239   91.8992   14.3704 C.3     1  UNL1        0.0189
     18 C          65.4979   91.8758   15.2344 C.3     1  UNL1        0.0044
     19 C          67.9498   91.9227   13.5065 C.3     1  UNL1        0.0044
     20 C          67.5881   91.8690   15.5960 C.3     1  UNL1        0.0044
     21 C          62.9382   84.9887   10.0981 C.3     1  UNL1        0.0607
     22 C          62.8101   83.9385   11.1614 C.ar    1  UNL1       -0.0122
     23 C          62.9320   82.4874   10.8010 C.ar    1  UNL1        0.0273
     24 C          62.8039   81.4372   11.8643 C.ar    1  UNL1        0.1594
     25 F          62.9258   79.9862   11.5039 F       1  UNL1       -0.2026
     26 C          62.5538   81.8379   13.2880 C.ar    1  UNL1        0.1507
     27 N          62.4256   80.7876   14.3513 N.pl3   1  UNL1       -0.1225
     28 C          62.4319   83.2888   13.6484 C.ar    1  UNL1        0.1639
     29 C          62.5600   84.3391   12.5851 C.ar    1  UNL1        0.0351
     30 O          62.1818   83.6895   15.0721 O.3     1  UNL1       -0.4451
     31 C          63.0081   84.7709   15.7031 C.2     1  UNL1        0.2535
     32 C          62.4384   85.5952   16.8193 C.2     1  UNL1        0.2138
     33 C          64.4040   85.0278   15.2179 C.3     1  UNL1        0.4542
     34 F          65.7998   85.2847   14.7327 F       1  UNL1       -0.1631
     35 F          64.8160   83.6615   15.6800 F       1  UNL1       -0.1631
     36 F          63.9919   86.3940   14.7558 F       1  UNL1       -0.1631
     37 O          63.2646   86.6765   17.4503 O.2     1  UNL1       -0.4654
     38 C          62.9700   88.1166   17.1512 C.3     1  UNL1        0.2528
@<TRIPOS>UNITY_ATOM_ATTR
3 1
charge 1
4 1
charge -1
@<TRIPOS>BOND
     1    10     9    1
     2     1     9    1
     3     1     2    1
     4     2     3    1
     5     3     4    2
     6     3     5    1
     7     5     6    2
     8     6    21    1
     9    21    22    1
    10    22    23   ar
    11    23    24   ar
    12    24    25    1
    13    24    26   ar
    14    26    27    1
    15    26    28   ar
    16    28    30    1
    17    30    31    1
    18    31    32    2
    19    32    37    1
    20    37    38    1
    21    31    33    1
    22    33    34    1
    23    33    35    1
    24    33    36    1
    25    28    29   ar
    26     6     7    1
    27     7     8    1
    28    10    11    1
    29    11    12   ar
    30    12    13   ar
    31    13    14   ar
    32    14    15   ar
    33    15    17    1
    34    17    18    1
    35    17    19    1
    36    17    20    1
    37    15    16   ar
    38     7     1    2
    39    16    11   ar
    40    29    22   ar
@<TRIPOS>MOLECULE
*****
 38 40 0 0 0
SMALL
GASTEIGER

@<TRIPOS>ATOM
      1 C          64.3725   91.4461   12.0410 C.2     1  UNL1        0.1417
      2 C          65.7151   92.1031   12.1662 C.3     1  UNL1        0.3069
      3 S          66.4062   92.1496   13.4966 S.O     1  UNL1        0.0630
      4 O          67.7489   92.8066   13.6218 O.co2   1  UNL1       -0.6771
      5 C          65.7547   91.5391   14.7020 C.2     1  UNL1        0.2273
      6 C          64.4121   90.8820   14.5768 C.2     1  UNL1        0.0743
      7 C          63.7210   90.8356   13.2464 C.2     1  UNL1        0.2119
      8 O          62.3783   90.1785   13.1212 O.2     1  UNL1       -0.2855
      9 N          63.6813   91.3996   10.7105 N.pl3   1  UNL1       -0.2291
     10 C          62.7329   90.2807   10.3968 C.3     1  UNL1        0.1384
     11 C          61.7845   89.1617   10.0830 C.ar    1  UNL1       -0.0010
     12 C          60.4023   89.1644   10.6659 C.ar    1  UNL1       -0.0026
     13 C          59.4539   88.0456   10.3521 C.ar    1  UNL1       -0.0006
     14 C          59.8875   86.9240    9.4555 C.ar    1  UNL1       -0.0043
     15 C          61.2696   86.9213    8.8726 C.ar    1  UNL1       -0.0231
     16 C          62.2181   88.0402    9.1863 C.ar    1  UNL1       -0.0068
     17 C          61.7032   85.7996    7.9759 C.3     1  UNL1        0.0189
     18 C          63.0795   85.8569    8.5698 C.3     1  UNL1        0.0044
     19 C          60.3270   85.7424    7.3821 C.3     1  UNL1        0.0044
     20 C          62.1368   84.6780    7.0793 C.3     1  UNL1        0.0044
     21 C          63.7606   90.2715   15.7821 C.3     1  UNL1        0.0607
     22 C          63.6905   88.7797   15.9220 C.ar    1  UNL1       -0.0122
     23 C          63.0209   88.1691   17.1173 C.ar    1  UNL1        0.0273
     24 C          62.9508   86.6773   17.2572 C.ar    1  UNL1        0.1594
     25 F          62.2812   86.0667   18.4525 F       1  UNL1       -0.2026
     26 C          63.5502   85.7961   16.2016 C.ar    1  UNL1        0.1507
     27 N          63.4800   84.3042   16.3415 N.pl3   1  UNL1       -0.1225
     28 C          64.2197   86.4066   15.0063 C.ar    1  UNL1        0.1639
     29 C          64.2899   87.8985   14.8664 C.ar    1  UNL1        0.0351
     30 O          64.8192   85.5254   13.9508 O.3     1  UNL1       -0.4451
     31 C          63.9364   84.6361   13.1261 C.2     1  UNL1        0.2535
     32 C          64.3469   83.2202   12.8493 C.2     1  UNL1        0.2138
     33 C          62.6432   85.1628   12.5782 C.3     1  UNL1        0.4542
     34 F          61.3500   85.6895   12.0303 F       1  UNL1       -0.1631
     35 F          61.8840   84.3173   13.5574 F       1  UNL1       -0.1631
     36 F          63.4024   86.0083   11.5990 F       1  UNL1       -0.1631
     37 O          63.4643   82.3309   12.0247 O.2     1  UNL1       -0.4654
     38 C          62.9160   81.0646   12.6128 C.3     1  UNL1        0.2528
@<TRIPOS>UNITY_ATOM_ATTR
3 1
charge 1
4 1
charge -1
@<TRIPOS>BOND
     1    10     9    1
     2     1     9    1
     3     1     2    1
     4     2     3    1
     5     3     4    2
     6     3     5    1
     7     5     6    2
     8     6    21    1
     9    21    22    1
    10    22    23   ar
    11    23    24   ar
    12    24    25    1
    13    24    26   ar
    14    26    27    1
    15    26    28   ar
    16    28    30    1
    17    30    31    1
    18    31    32    2
    19    32    37    1
    20    37    38    1
    21    31    33    1
    22    33    34    1
    23    33    35    1
    24    33    36    1
    25    28    29   ar
    26     6     7    1
    27     7     8    1
    28    10    11    1
    29    11    12   ar
    30    12    13   ar
    31    13    14   ar
    32    14    15   ar
    33    15    17    1
    34    17    18    1
    35    17    19    1
    36    17    20    1
    37    15    16   ar
    38     7     1    2
    39    16    11   ar
    40    29    22   ar
@<TRIPOS>MOLECULE
*****
 38 40 0 0 0
SMALL
GASTEIGER

@<TRIPOS>ATOM
      1 C          64.2636   90.9839   13.1674 C.2     1  UNL1        0.1417
      2 C          65.2019   91.7645   12.2956 C.3     1  UNL1        0.3069
      3 S          64.8088   92.1074   10.8893 S.O     1  UNL1        0.0630
      4 O          65.7471   92.8881   10.0173 O.co2   1  UNL1       -0.6771
      5 C          63.4774   91.6696   10.3548 C.2     1  UNL1        0.2273
      6 C          62.5391   90.8890   11.2266 C.2     1  UNL1        0.0743
      7 C          62.9322   90.5461   12.6330 C.2     1  UNL1        0.2119
      8 O          61.9939   89.7654   13.5049 O.2     1  UNL1       -0.2855
      9 N          64.6567   90.6410   14.5739 N.pl3   1  UNL1       -0.2291
     10 C          64.2097   89.3451   15.1828 C.3     1  UNL1        0.1384
     11 C          63.7627   88.0491   15.7917 C.ar    1  UNL1       -0.0010
     12 C          63.0375   88.0481   17.1048 C.ar    1  UNL1       -0.0026
     13 C          62.5905   86.7523   17.7137 C.ar    1  UNL1       -0.0006
     14 C          62.8687   85.4574   17.0096 C.ar    1  UNL1       -0.0043
     15 C          63.5939   85.4583   15.6966 C.ar    1  UNL1       -0.0231
     16 C          64.0409   86.7542   15.0876 C.ar    1  UNL1       -0.0068
     17 C          63.8722   84.1633   14.9925 C.3     1  UNL1        0.0189
     18 C          65.2061   84.6893   14.5521 C.3     1  UNL1        0.0044
     19 C          62.5382   83.6374   15.4328 C.3     1  UNL1        0.0044
     20 C          64.1503   82.8684   14.2884 C.3     1  UNL1        0.0044
     21 C          61.2077   90.4512   10.6921 C.3     1  UNL1        0.0607
     22 C          61.1022   89.1956    9.8784 C.ar    1  UNL1       -0.0122
     23 C          59.8862   88.9478    9.0358 C.ar    1  UNL1        0.0273
     24 C          59.7807   87.6922    8.2221 C.ar    1  UNL1        0.1594
     25 F          58.5647   87.4444    7.3794 F       1  UNL1       -0.2026
     26 C          60.8913   86.6843    8.2509 C.ar    1  UNL1        0.1507
     27 N          60.7858   85.4286    7.4371 N.pl3   1  UNL1       -0.1225
     28 C          62.1073   86.9320    9.0934 C.ar    1  UNL1        0.1639
     29 C          62.2128   88.1877    9.9072 C.ar    1  UNL1        0.0351
     30 O          63.2178   85.9241    9.1222 O.3     1  UNL1       -0.4451
     31 C          63.2364   84.8585   10.1779 C.2     1  UNL1        0.2535
     32 C          64.0003   83.5883    9.9480 C.2     1  UNL1        0.2138
     33 C          62.4909   85.0632   11.4633 C.3     1  UNL1        0.4542
     34 F          61.7455   85.2679   12.7488 F       1  UNL1       -0.1631
     35 F          61.3615   84.2253   10.9418 F       1  UNL1       -0.1631
     36 F          63.6204   85.9012   11.9849 F       1  UNL1       -0.1631
     37 O          64.0189   82.5228   11.0036 O.2     1  UNL1       -0.4654
     38 C          63.2113   81.2720   10.8210 C.3     1  UNL1        0.2528
@<TRIPOS>UNITY_ATOM_ATTR
3 1
charge 1
4 1
charge -1
@<TRIPOS>BOND
     1    10     9    1
     2     1     9    1
     3     1     2    1
     4     2     3    1
     5     3     4    2
     6     3     5    1
     7     5     6    2
     8     6    21    1
     9    21    22    1
    10    22    23   ar
    11    23    24   ar
    12    24    25    1
    13    24    26   ar
    14    26    27    1
    15    26    28   ar
    16    28    30    1
    17    30    31    1
    18    31    32    2
    19    32    37    1
    20    37    38    1
    21    31    33    1
    22    33    34    1
    23    33    35    1
    24    33    36    1
    25    28    29   ar
    26     6     7    1
    27     7     8    1
    28    10    11    1
    29    11    12   ar
    30    12    13   ar
    31    13    14   ar
    32    14    15   ar
    33    15    17    1
    34    17    18    1
    35    17    19    1
    36    17    20    1
    37    15    16   ar
    38     7     1    2
    39    16    11   ar
    40    29    22   ar
@<TRIPOS>MOLECULE
*****
 38 40 0 0 0
SMALL
GASTEIGER

@<TRIPOS>ATOM
      1 C          60.6507   88.2571   10.1681 C.2     1  UNL1        0.1417
      2 C          59.5143   89.0143   10.7886 C.3     1  UNL1        0.3069
      3 S          59.6786   90.4652   11.1318 S.O     1  UNL1        0.0630
      4 O          58.5421   91.2225   11.7524 O.co2   1  UNL1       -0.6771
      5 C          60.9793   91.1589   10.8544 C.2     1  UNL1        0.2273
      6 C          62.1157   90.4017   10.2339 C.2     1  UNL1        0.0743
      7 C          61.9514   88.9508    9.8907 C.2     1  UNL1        0.2119
      8 O          63.0879   88.1935    9.2701 O.2     1  UNL1       -0.2855
      9 N          60.4865   86.8061    9.8248 N.pl3   1  UNL1       -0.2291
     10 C          61.5029   85.8057   10.2896 C.3     1  UNL1        0.1384
     11 C          62.5194   84.8053   10.7545 C.ar    1  UNL1       -0.0010
     12 C          63.3293   84.0379    9.7519 C.ar    1  UNL1       -0.0026
     13 C          64.3458   83.0375   10.2167 C.ar    1  UNL1       -0.0006
     14 C          64.5524   82.8046   11.6840 C.ar    1  UNL1       -0.0043
     15 C          63.7425   83.5721   12.6865 C.ar    1  UNL1       -0.0231
     16 C          62.7260   84.5724   12.2218 C.ar    1  UNL1       -0.0068
     17 C          63.9491   83.3392   14.1539 C.3     1  UNL1        0.0189
     18 C          64.9730   84.4349   14.1837 C.3     1  UNL1        0.0044
     19 C          62.9252   82.2434   14.1241 C.3     1  UNL1        0.0044
     20 C          64.1557   83.1062   15.6212 C.3     1  UNL1        0.0044
     21 C          63.4164   91.0954    9.9565 C.3     1  UNL1        0.0607
     22 C          64.2313   91.6428   11.0906 C.ar    1  UNL1       -0.0122
     23 C          65.1351   92.8187   10.8657 C.ar    1  UNL1        0.0273
     24 C          65.9499   93.3661   11.9999 C.ar    1  UNL1        0.1594
     25 F          66.8537   94.5420   11.7750 F       1  UNL1       -0.2026
     26 C          65.8610   92.7376   13.3590 C.ar    1  UNL1        0.1507
     27 N          66.6759   93.2851   14.4932 N.pl3   1  UNL1       -0.1225
     28 C          64.9573   91.5618   13.5839 C.ar    1  UNL1        0.1639
     29 C          64.1424   91.0143   12.4497 C.ar    1  UNL1        0.0351
     30 O          64.8684   90.9333   14.9430 O.3     1  UNL1       -0.4451
     31 C          63.9962   89.7320   15.1583 C.2     1  UNL1        0.2535
     32 C          63.2347   89.5783   16.4414 C.2     1  UNL1        0.2138
     33 C          63.8857   88.6845   14.0904 C.3     1  UNL1        0.4542
     34 F          63.7751   87.6370   13.0225 F       1  UNL1       -0.1631
     35 F          65.0954   87.9920   14.6444 F       1  UNL1       -0.1631
     36 F          62.6759   89.3770   13.5364 F       1  UNL1       -0.1631
     37 O          62.3626   88.3770   16.6567 O.2     1  UNL1       -0.4654
     38 C          62.8477   87.2407   17.5073 C.3     1  UNL1        0.2528
@<TRIPOS>UNITY_ATOM_ATTR
3 1
charge 1
4 1
charge -1
@<TRIPOS>BOND
     1    10     9    1
     2     1     9    1
     3     1     2    1
     4     2     3    1
     5     3     4    2
     6     3     5    1
     7     5     6    2
     8     6    21    1
     9    21    22    1
    10    22    23   ar
    11    23    24   ar
    12    24    25    1
    13    24    26   ar
    14    26    27    1
    15    26    28   ar
    16    28    30    1
    17    30    31    1
    18    31    32    2
    19    32    37    1
    20    37    38    1
    21    31    33    1
    22    33    34    1
    23    33    35    1
    24    33    36    1
    25    28    29   ar
    26     6     7    1
    27     7     8    1
    28    10    11    1
    29    11    12   ar
    30    12    13   ar
    31    13    14   ar
    32    14    15   ar
    33    15    17    1
    34    17    18    1
    35    17    19    1
    36    17    20    1
    37    15    16   ar
    38     7     1    2
    39    16    11   ar
    40    29    22   ar
@<TRIPOS>MOLECULE
*****
 38 40 0 0 0
SMALL
GASTEIGER

@<TRIPOS>ATOM
      1 C          60.1723   87.7358    8.6401 C.2     1  UNL1        0.1417
      2 C          60.2093   88.7194    9.7719 C.3     1  UNL1        0.3069
      3 S          61.2124   88.5559   10.8751 S.O     1  UNL1        0.0630
      4 O          61.2495   89.5395   12.0070 O.co2   1  UNL1       -0.6771
      5 C          62.1784   87.4087   10.8464 C.2     1  UNL1        0.2273
      6 C          62.1414   86.4251    9.7145 C.2     1  UNL1        0.0743
      7 C          61.1383   86.5887    8.6113 C.2     1  UNL1        0.2119
      8 O          61.1012   85.6051    7.4794 O.2     1  UNL1       -0.2855
      9 N          59.1691   87.8994    7.5368 N.pl3   1  UNL1       -0.2291
     10 C          59.2615   89.0727    6.6070 C.3     1  UNL1        0.1384
     11 C          59.3540   90.2461    5.6771 C.ar    1  UNL1       -0.0010
     12 C          58.1744   91.1550    5.4968 C.ar    1  UNL1       -0.0026
     13 C          58.2668   92.3283    4.5669 C.ar    1  UNL1       -0.0006
     14 C          59.5388   92.5928    3.8174 C.ar    1  UNL1       -0.0043
     15 C          60.7184   91.6840    3.9976 C.ar    1  UNL1       -0.0231
     16 C          60.6260   90.5106    4.9275 C.ar    1  UNL1       -0.0068
     17 C          61.9905   91.9486    3.2480 C.3     1  UNL1        0.0189
     18 C          62.6551   90.8185    3.9768 C.3     1  UNL1        0.0044
     19 C          61.3259   93.0786    2.5192 C.3     1  UNL1        0.0044
     20 C          63.2625   92.2132    2.4984 C.3     1  UNL1        0.0044
     21 C          63.1075   85.2780    9.6858 C.3     1  UNL1        0.0607
     22 C          62.9752   84.1611   10.6782 C.ar    1  UNL1       -0.0122
     23 C          63.1913   82.7418   10.2433 C.ar    1  UNL1        0.0273
     24 C          63.0590   81.6249   11.2357 C.ar    1  UNL1        0.1594
     25 F          63.2751   80.2056   10.8008 F       1  UNL1       -0.2026
     26 C          62.7106   81.9271   12.6630 C.ar    1  UNL1        0.1507
     27 N          62.5783   80.8101   13.6554 N.pl3   1  UNL1       -0.1225
     28 C          62.4945   83.3463   13.0980 C.ar    1  UNL1        0.1639
     29 C          62.6268   84.4633   12.1055 C.ar    1  UNL1        0.0351
     30 O          62.1461   83.6485   14.5253 O.3     1  UNL1       -0.4451
     31 C          62.9907   84.6018   15.3178 C.2     1  UNL1        0.2535
     32 C          62.3990   85.3365   16.4840 C.2     1  UNL1        0.2138
     33 C          64.4268   84.8204   14.9439 C.3     1  UNL1        0.4542
     34 F          65.8629   85.0390   14.5701 F       1  UNL1       -0.1631
     35 F          64.7642   83.4441   15.4357 F       1  UNL1       -0.1631
     36 F          64.0893   86.1967   14.4522 F       1  UNL1       -0.1631
     37 O          63.2435   86.2898   17.2765 O.2     1  UNL1       -0.4654
     38 C          62.9643   87.7626   17.2220 C.3     1  UNL1        0.2528
@<TRIPOS>UNITY_ATOM_ATTR
3 1
charge 1
4 1
charge -1
@<TRIPOS>BOND
     1    10     9    1
     2     1     9    1
     3     1     2    1
     4     2     3    1
     5     3     4    2
     6     3     5    1
     7     5     6    2
     8     6    21    1
     9    21    22    1
    10    22    23   ar
    11    23    24   ar
    12    24    25    1
    13    24    26   ar
    14    26    27    1
    15    26    28   ar
    16    28    30    1
    17    30    31    1
    18    31    32    2
    19    32    37    1
    20    37    38    1
    21    31    33    1
    22    33    34    1
    23    33    35    1
    24    33    36    1
    25    28    29   ar
    26     6     7    1
    27     7     8    1
    28    10    11    1
    29    11    12   ar
    30    12    13   ar
    31    13    14   ar
    32    14    15   ar
    33    15    17    1
    34    17    18    1
    35    17    19    1
    36    17    20    1
    37    15    16   ar
    38     7     1    2
    39    16    11   ar
    40    29    22   ar
@<TRIPOS>MOLECULE
*****
 38 40 0 0 0
SMALL
GASTEIGER

@<TRIPOS>ATOM
      1 C          65.1481   92.0616   13.4304 C.2     1  UNL1        0.1417
      2 C          66.1673   93.0549   12.9566 C.3     1  UNL1        0.3069
      3 S          66.2566   93.4009   11.4998 S.O     1  UNL1        0.0630
      4 O          67.2758   94.3943   11.0259 O.co2   1  UNL1       -0.6771
      5 C          65.3266   92.7536   10.5168 C.2     1  UNL1        0.2273
      6 C          64.3074   91.7603   10.9906 C.2     1  UNL1        0.0743
      7 C          64.2182   91.4143   12.4474 C.2     1  UNL1        0.2119
      8 O          63.1990   90.4209   12.9212 O.2     1  UNL1       -0.2855
      9 N          65.0588   91.7155   14.8872 N.pl3   1  UNL1       -0.2291
     10 C          64.5683   90.3618   15.3078 C.3     1  UNL1        0.1384
     11 C          64.0777   89.0081   15.7284 C.ar    1  UNL1       -0.0010
     12 C          63.1909   88.8719   16.9305 C.ar    1  UNL1       -0.0026
     13 C          62.7003   87.5183   17.3512 C.ar    1  UNL1       -0.0006
     14 C          63.0965   86.3008   16.5697 C.ar    1  UNL1       -0.0043
     15 C          63.9833   86.4370   15.3676 C.ar    1  UNL1       -0.0231
     16 C          64.4739   87.7906   14.9469 C.ar    1  UNL1       -0.0068
     17 C          64.3794   85.2194   14.5861 C.3     1  UNL1        0.0189
     18 C          65.8247   85.5889   14.7429 C.3     1  UNL1        0.0044
     19 C          62.9342   84.8499   14.4292 C.3     1  UNL1        0.0044
     20 C          64.7755   84.0019   13.8046 C.3     1  UNL1        0.0044
     21 C          63.3775   91.1130   10.0076 C.3     1  UNL1        0.0607
     22 C          62.1507   90.3998   10.4934 C.ar    1  UNL1       -0.0122
     23 C          60.9189   91.1805   10.8449 C.ar    1  UNL1        0.0273
     24 C          59.6921   90.4672   11.3307 C.ar    1  UNL1        0.1594
     25 F          58.4604   91.2479   11.6821 F       1  UNL1       -0.2026
     26 C          59.6969   88.9733   11.4651 C.ar    1  UNL1        0.1507
     27 N          58.4699   88.2600   11.9510 N.pl3   1  UNL1       -0.1225
     28 C          60.9285   88.1926   11.1137 C.ar    1  UNL1        0.1639
     29 C          62.1555   88.9058   10.6279 C.ar    1  UNL1        0.0351
     30 O          60.9333   86.6986   11.2481 O.3     1  UNL1       -0.4451
     31 C          61.7161   85.8611   10.2807 C.2     1  UNL1        0.2535
     32 C          62.6980   84.8477   10.7897 C.2     1  UNL1        0.2138
     33 C          61.5170   86.0368    8.8045 C.3     1  UNL1        0.4542
     34 F          61.3179   86.2126    7.3282 F       1  UNL1       -0.1631
     35 F          62.9897   86.2638    8.6328 F       1  UNL1       -0.1631
     36 F          60.0443   85.8099    8.9761 F       1  UNL1       -0.1631
     37 O          63.4808   84.0102    9.8224 O.2     1  UNL1       -0.4654
     38 C          64.1948   82.7811   10.3014 C.3     1  UNL1        0.2528
@<TRIPOS>UNITY_ATOM_ATTR
3 1
charge 1
4 1
charge -1
@<TRIPOS>BOND
     1    10     9    1
     2     1     9    1
     3     1     2    1
     4     2     3    1
     5     3     4    2
     6     3     5    1
     7     5     6    2
     8     6    21    1
     9    21    22    1
    10    22    23   ar
    11    23    24   ar
    12    24    25    1
    13    24    26   ar
    14    26    27    1
    15    26    28   ar
    16    28    30    1
    17    30    31    1
    18    31    32    2
    19    32    37    1
    20    37    38    1
    21    31    33    1
    22    33    34    1
    23    33    35    1
    24    33    36    1
    25    28    29   ar
    26     6     7    1
    27     7     8    1
    28    10    11    1
    29    11    12   ar
    30    12    13   ar
    31    13    14   ar
    32    14    15   ar
    33    15    17    1
    34    17    18    1
    35    17    19    1
    36    17    20    1
    37    15    16   ar
    38     7     1    2
    39    16    11   ar
    40    29    22   ar
@<TRIPOS>MOLECULE
*****
 38 40 0 0 0
SMALL
GASTEIGER

@<TRIPOS>ATOM
      1 C          60.6207   87.8350   10.3363 C.2     1  UNL1        0.1417
      2 C          59.4300   88.0525   11.2223 C.3     1  UNL1        0.3069
      3 S          59.2538   89.3610   11.9339 S.O     1  UNL1        0.0630
      4 O          58.0631   89.5786   12.8200 O.co2   1  UNL1       -0.6771
      5 C          60.2683   90.4521   11.7597 C.2     1  UNL1        0.2273
      6 C          61.4590   90.2346   10.8737 C.2     1  UNL1        0.0743
      7 C          61.6351   88.9261   10.1620 C.2     1  UNL1        0.2119
      8 O          62.8259   88.7085    9.2760 O.2     1  UNL1       -0.2855
      9 N          60.7969   86.5263    9.6246 N.pl3   1  UNL1       -0.2291
     10 C          61.7586   85.5062   10.1577 C.3     1  UNL1        0.1384
     11 C          62.7205   84.4860   10.6908 C.ar    1  UNL1       -0.0010
     12 C          63.5049   83.6276    9.7433 C.ar    1  UNL1       -0.0026
     13 C          64.4667   82.6075   10.2764 C.ar    1  UNL1       -0.0006
     14 C          64.6441   82.4458   11.7570 C.ar    1  UNL1       -0.0043
     15 C          63.8597   83.3042   12.7046 C.ar    1  UNL1       -0.0231
     16 C          62.8979   84.3243   12.1715 C.ar    1  UNL1       -0.0068
     17 C          64.0372   83.1424   14.1853 C.3     1  UNL1        0.0189
     18 C          63.1489   81.9341   14.1598 C.3     1  UNL1        0.0044
     19 C          64.9255   84.3508   14.2107 C.3     1  UNL1        0.0044
     20 C          64.2147   82.9807   15.6659 C.3     1  UNL1        0.0044
     21 C          62.4734   91.3257   10.6994 C.3     1  UNL1        0.0607
     22 C          63.6487   91.4122   11.6274 C.ar    1  UNL1       -0.0122
     23 C          63.6020   90.7302   12.9626 C.ar    1  UNL1        0.0273
     24 C          64.7772   90.8167   13.8906 C.ar    1  UNL1        0.1594
     25 F          64.7305   90.1347   15.2258 F       1  UNL1       -0.2026
     26 C          65.9994   91.5852   13.4834 C.ar    1  UNL1        0.1507
     27 N          67.1747   91.6717   14.4114 N.pl3   1  UNL1       -0.1225
     28 C          66.0462   92.2673   12.1483 C.ar    1  UNL1        0.1639
     29 C          64.8708   92.1808   11.2202 C.ar    1  UNL1        0.0351
     30 O          67.2683   93.0358   11.7411 O.3     1  UNL1       -0.4451
     31 C          67.4238   93.5014   10.3236 C.2     1  UNL1        0.2535
     32 C          66.6373   94.6797    9.8307 C.2     1  UNL1        0.2138
     33 C          68.3657   92.7887    9.3991 C.3     1  UNL1        0.4542
     34 F          69.3077   92.0760    8.4747 F       1  UNL1       -0.1631
     35 F          69.2256   94.0158    9.3292 F       1  UNL1       -0.1631
     36 F          67.5059   91.5616    9.4691 F       1  UNL1       -0.1631
     37 O          66.7927   95.1453    8.4133 O.2     1  UNL1       -0.4654
     38 C          67.2855   96.5333    8.1296 C.3     1  UNL1        0.2528
@<TRIPOS>UNITY_ATOM_ATTR
3 1
charge 1
4 1
charge -1
@<TRIPOS>BOND
     1    10     9    1
     2     1     9    1
     3     1     2    1
     4     2     3    1
     5     3     4    2
     6     3     5    1
     7     5     6    2
     8     6    21    1
     9    21    22    1
    10    22    23   ar
    11    23    24   ar
    12    24    25    1
    13    24    26   ar
    14    26    27    1
    15    26    28   ar
    16    28    30    1
    17    30    31    1
    18    31    32    2
    19    32    37    1
    20    37    38    1
    21    31    33    1
    22    33    34    1
    23    33    35    1
    24    33    36    1
    25    28    29   ar
    26     6     7    1
    27     7     8    1
    28    10    11    1
    29    11    12   ar
    30    12    13   ar
    31    13    14   ar
    32    14    15   ar
    33    15    17    1
    34    17    18    1
    35    17    19    1
    36    17    20    1
    37    15    16   ar
    38     7     1    2
    39    16    11   ar
    40    29    22   ar
@<TRIPOS>MOLECULE
*****
 38 40 0 0 0
SMALL
GASTEIGER

@<TRIPOS>ATOM
      1 C          63.5149   86.4088   15.0051 C.2     1  UNL1        0.1417
      2 C          63.2289   86.2163   16.4649 C.3     1  UNL1        0.3069
      3 S          63.0217   87.4079   17.3520 S.O     1  UNL1        0.0630
      4 O          62.7357   87.2154   18.8119 O.co2   1  UNL1       -0.6771
      5 C          63.1004   88.7920   16.7794 C.2     1  UNL1        0.2273
      6 C          63.3864   88.9846   15.3196 C.2     1  UNL1        0.0743
      7 C          63.5936   87.7930   14.4324 C.2     1  UNL1        0.2119
      8 O          63.8796   87.9855   12.9725 O.2     1  UNL1       -0.2855
      9 N          63.7222   85.2172   14.1178 N.pl3   1  UNL1       -0.2291
     10 C          63.3381   85.2847   12.6694 C.3     1  UNL1        0.1384
     11 C          62.9539   85.3522   11.2210 C.ar    1  UNL1       -0.0010
     12 C          63.5213   84.3619   10.2476 C.ar    1  UNL1       -0.0026
     13 C          63.1372   84.4293    8.7993 C.ar    1  UNL1       -0.0006
     14 C          62.1856   85.4870    8.3242 C.ar    1  UNL1       -0.0043
     15 C          61.6182   86.4773    9.2975 C.ar    1  UNL1       -0.0231
     16 C          62.0023   86.4099   10.7459 C.ar    1  UNL1       -0.0068
     17 C          60.6666   87.5351    8.8224 C.3     1  UNL1        0.0189
     18 C          59.9652   86.5206    7.9687 C.3     1  UNL1        0.0044
     19 C          61.3680   88.5495    9.6761 C.3     1  UNL1        0.0044
     20 C          59.7151   88.5928    8.3473 C.3     1  UNL1        0.0044
     21 C          63.4651   90.3687   14.7469 C.3     1  UNL1        0.0607
     22 C          64.7828   91.0832   14.6905 C.ar    1  UNL1       -0.0122
     23 C          65.3738   91.6666   15.9397 C.ar    1  UNL1        0.0273
     24 C          66.6914   92.3811   15.8832 C.ar    1  UNL1        0.1594
     25 F          67.2824   92.9646   17.1324 F       1  UNL1       -0.2026
     26 C          67.4182   92.5122   14.5776 C.ar    1  UNL1        0.1507
     27 N          68.7360   93.2267   14.5212 N.pl3   1  UNL1       -0.1225
     28 C          66.8273   91.9288   13.3284 C.ar    1  UNL1        0.1639
     29 C          65.5096   91.2143   13.3849 C.ar    1  UNL1        0.0351
     30 O          67.5541   92.0598   12.0228 O.3     1  UNL1       -0.4451
     31 C          67.1108   93.0805   11.0169 C.2     1  UNL1        0.2535
     32 C          66.0662   94.0920   11.3851 C.2     1  UNL1        0.2138
     33 C          67.7122   93.0896    9.6428 C.3     1  UNL1        0.4542
     34 F          68.3135   93.0987    8.2686 F       1  UNL1       -0.1631
     35 F          67.5315   91.6032    9.5539 F       1  UNL1       -0.1631
     36 F          67.8928   94.5760    9.7317 F       1  UNL1       -0.1631
     37 O          65.6229   95.1126   10.3792 O.2     1  UNL1       -0.4654
     38 C          65.6322   96.5697   10.7352 C.3     1  UNL1        0.2528
@<TRIPOS>UNITY_ATOM_ATTR
3 1
charge 1
4 1
charge -1
@<TRIPOS>BOND
     1    10     9    1
     2     1     9    1
     3     1     2    1
     4     2     3    1
     5     3     4    2
     6     3     5    1
     7     5     6    2
     8     6    21    1
     9    21    22    1
    10    22    23   ar
    11    23    24   ar
    12    24    25    1
    13    24    26   ar
    14    26    27    1
    15    26    28   ar
    16    28    30    1
    17    30    31    1
    18    31    32    2
    19    32    37    1
    20    37    38    1
    21    31    33    1
    22    33    34    1
    23    33    35    1
    24    33    36    1
    25    28    29   ar
    26     6     7    1
    27     7     8    1
    28    10    11    1
    29    11    12   ar
    30    12    13   ar
    31    13    14   ar
    32    14    15   ar
    33    15    17    1
    34    17    18    1
    35    17    19    1
    36    17    20    1
    37    15    16   ar
    38     7     1    2
    39    16    11   ar
    40    29    22   ar
@<TRIPOS>MOLECULE
*****
 38 40 0 0 0
SMALL
GASTEIGER

@<TRIPOS>ATOM
      1 C          63.7318   85.8926   15.8475 C.2     1  UNL1        0.1417
      2 C          63.1179   85.8515   17.2155 C.3     1  UNL1        0.3069
      3 S          62.7956   87.1296   17.9315 S.O     1  UNL1        0.0630
      4 O          62.1817   87.0885   19.2996 O.co2   1  UNL1       -0.6771
      5 C          63.0871   88.4486   17.2795 C.2     1  UNL1        0.2273
      6 C          63.7009   88.4897   15.9115 C.2     1  UNL1        0.0743
      7 C          64.0233   87.2117   15.1955 C.2     1  UNL1        0.2119
      8 O          64.6371   87.2527   13.8274 O.2     1  UNL1       -0.2855
      9 N          64.0542   84.6145   15.1314 N.pl3   1  UNL1       -0.2291
     10 C          63.8384   84.5094   13.6508 C.3     1  UNL1        0.1384
     11 C          63.6225   84.4043   12.1701 C.ar    1  UNL1       -0.0010
     12 C          64.3785   83.3833   11.3726 C.ar    1  UNL1       -0.0026
     13 C          64.1627   83.2782    9.8919 C.ar    1  UNL1       -0.0006
     14 C          63.1910   84.1941    9.2088 C.ar    1  UNL1       -0.0043
     15 C          62.4350   85.2151   10.0063 C.ar    1  UNL1       -0.0231
     16 C          62.6508   85.3202   11.4869 C.ar    1  UNL1       -0.0068
     17 C          61.4632   86.1311    9.3231 C.3     1  UNL1        0.0189
     18 C          61.9374   85.6384    7.9880 C.3     1  UNL1        0.0044
     19 C          60.9890   86.6237   10.6581 C.3     1  UNL1        0.0044
     20 C          60.4914   87.0470    8.6399 C.3     1  UNL1        0.0044
     21 C          63.9924   89.8087   15.2595 C.3     1  UNL1        0.0607
     22 C          63.4956   90.0853   13.8715 C.ar    1  UNL1       -0.0122
     23 C          62.1030   89.6880   13.4803 C.ar    1  UNL1        0.0273
     24 C          61.6061   89.9646   12.0923 C.ar    1  UNL1        0.1594
     25 F          60.2136   89.5673   11.7010 F       1  UNL1       -0.2026
     26 C          62.5018   90.6385   11.0954 C.ar    1  UNL1        0.1507
     27 N          62.0049   90.9151    9.7074 N.pl3   1  UNL1       -0.1225
     28 C          63.8943   91.0358   11.4866 C.ar    1  UNL1        0.1639
     29 C          64.3912   90.7592   12.8747 C.ar    1  UNL1        0.0351
     30 O          64.7900   91.7097   10.4898 O.3     1  UNL1       -0.4451
     31 C          65.8413   92.6724   10.9567 C.2     1  UNL1        0.2535
     32 C          65.5465   94.1426   10.9988 C.2     1  UNL1        0.2138
     33 C          67.1874   92.1649   11.3814 C.3     1  UNL1        0.4542
     34 F          68.5335   91.6575   11.8062 F       1  UNL1       -0.1631
     35 F          67.5329   91.8826    9.9494 F       1  UNL1       -0.1631
     36 F          66.8420   92.4473   12.8135 F       1  UNL1       -0.1631
     37 O          66.5978   95.1052   11.4657 O.2     1  UNL1       -0.4654
     38 C          66.6278   96.5038   10.9242 C.3     1  UNL1        0.2528
@<TRIPOS>UNITY_ATOM_ATTR
3 1
charge 1
4 1
charge -1
@<TRIPOS>BOND
     1    10     9    1
     2     1     9    1
     3     1     2    1
     4     2     3    1
     5     3     4    2
     6     3     5    1
     7     5     6    2
     8     6    21    1
     9    21    22    1
    10    22    23   ar
    11    23    24   ar
    12    24    25    1
    13    24    26   ar
    14    26    27    1
    15    26    28   ar
    16    28    30    1
    17    30    31    1
    18    31    32    2
    19    32    37    1
    20    37    38    1
    21    31    33    1
    22    33    34    1
    23    33    35    1
    24    33    36    1
    25    28    29   ar
    26     6     7    1
    27     7     8    1
    28    10    11    1
    29    11    12   ar
    30    12    13   ar
    31    13    14   ar
    32    14    15   ar
    33    15    17    1
    34    17    18    1
    35    17    19    1
    36    17    20    1
    37    15    16   ar
    38     7     1    2
    39    16    11   ar
    40    29    22   ar
