@<TRIPOS>MOLECULE
*****
 23 26 0 0 0
SMALL
GASTEIGER

@<TRIPOS>ATOM
      1 C          62.2463   89.1250   11.9215 C.2     1  UNL1        0.3394
      2 O          60.8146   89.3431   12.3121 O.2     1  UNL1       -0.2452
      3 C          63.9760   89.3895   14.6119 C.3     1  UNL1        0.0271
      4 C          64.6106   90.5411   13.8901 C.2     1  UNL1       -0.0321
      5 C          65.6945   91.3372   14.5545 C.2     1  UNL1        0.0219
      6 C          66.3290   92.4888   13.8327 C.2     1  UNL1        0.1407
      7 F          67.4130   93.2849   14.4972 F       1  UNL1       -0.2042
      8 C          65.8798   92.8444   12.4464 C.2     1  UNL1        0.0449
      9 C          64.7959   92.0483   11.7820 C.2     1  UNL1        0.0690
     10 N          64.1502   92.1623   10.4329 N.2     1  UNL1       -0.2475
     11 C          63.1165   91.0811   10.3210 C.2     1  UNL1        0.1013
     12 C          63.1234   90.2989   11.6009 C.2     1  UNL1        0.0814
     13 C          64.1613   90.8966   12.5038 C.3     1  UNL1        0.0887
     14 O          62.8010   87.7330   11.8514 O.3     1  UNL1       -0.4456
     15 C          61.9081   86.5881   11.4750 C.3     1  UNL1        0.2087
     16 C          61.6988   86.2437   10.0301 C.3     1  UNL1        0.0445
     17 C          62.7537   85.4865    9.2792 C.3     1  UNL1        0.0210
     18 C          62.5445   85.1420    7.8343 C.3     1  UNL1        0.0722
     19 N          61.2803   85.5549    7.1404 N.3     1  UNL1       -0.2727
     20 C          60.2255   86.3122    7.8912 C.3     1  UNL1        0.0722
     21 C          60.4347   86.6566    9.3361 C.3     1  UNL1        0.0210
     22 C          61.3499   85.7663    7.9331 C.3     1  UNL1        0.0722
     23 C          61.5392   86.0777    9.2396 C.3     1  UNL1        0.0210
@<TRIPOS>BOND
     1     3     4    1
     2     4     5    2
     3     5     6    1
     4     6     7    1
     5     6     8    2
     6     8     9    1
     7     9    10    2
     8    10    11    1
     9    11    12    2
    10    12     1    1
    11     1     2    2
    12     1    14    1
    13    14    15    1
    14    15    16    1
    15    16    17    1
    16    17    18    1
    17    18    19    1
    18    19    20    1
    19    20    21    1
    20    19    22    1
    21    22    23    1
    22    12    13    1
    23    13     4    1
    24    13     9    1
    25    21    16    1
    26    23    16    1
@<TRIPOS>MOLECULE
*****
 23 26 0 0 0
SMALL
GASTEIGER

@<TRIPOS>ATOM
      1 C          62.3502   89.1677   11.9956 C.2     1  UNL1        0.3394
      2 O          60.9144   89.3843   12.3720 O.2     1  UNL1       -0.2452
      3 C          64.0199   89.4414   14.7229 C.3     1  UNL1        0.0271
      4 C          64.6675   90.5931   14.0128 C.2     1  UNL1       -0.0321
      5 C          65.7347   91.3931   14.6992 C.2     1  UNL1        0.0219
      6 C          66.3823   92.5447   13.9892 C.2     1  UNL1        0.1407
      7 F          67.4495   93.3447   14.6757 F       1  UNL1       -0.2042
      8 C          65.9627   92.8966   12.5927 C.2     1  UNL1        0.0449
      9 C          64.8955   92.0967   11.9063 C.2     1  UNL1        0.0690
     10 N          64.2793   92.2066   10.5431 N.2     1  UNL1       -0.2475
     11 C          63.2508   91.1227   10.4107 C.2     1  UNL1        0.1013
     12 C          63.2314   90.3430   11.6920 C.2     1  UNL1        0.0814
     13 C          64.2479   90.9450   12.6163 C.3     1  UNL1        0.0887
     14 O          62.9047   87.7759   11.9228 O.3     1  UNL1       -0.4456
     15 C          62.1008   86.6806   11.2873 C.3     1  UNL1        0.2087
     16 C          62.6309   85.2776   11.2646 C.3     1  UNL1        0.0445
     17 C          63.2135   84.7164   10.0013 C.3     1  UNL1        0.0210
     18 C          63.7436   83.3134    9.9785 C.3     1  UNL1        0.0722
     19 N          63.6911   82.4715   11.2189 N.3     1  UNL1       -0.2727
     20 C          63.1085   83.0327   12.4821 C.3     1  UNL1        0.0722
     21 C          62.5784   84.4357   12.5049 C.3     1  UNL1        0.0210
     22 C          63.3883   83.2348   11.2801 C.3     1  UNL1        0.0722
     23 C          62.9090   84.5034   11.3006 C.3     1  UNL1        0.0210
@<TRIPOS>BOND
     1     3     4    1
     2     4     5    2
     3     5     6    1
     4     6     7    1
     5     6     8    2
     6     8     9    1
     7     9    10    2
     8    10    11    1
     9    11    12    2
    10    12     1    1
    11     1     2    2
    12     1    14    1
    13    14    15    1
    14    15    16    1
    15    16    17    1
    16    17    18    1
    17    18    19    1
    18    19    20    1
    19    20    21    1
    20    19    22    1
    21    22    23    1
    22    12    13    1
    23    13     4    1
    24    13     9    1
    25    21    16    1
    26    23    16    1
@<TRIPOS>MOLECULE
*****
 23 26 0 0 0
SMALL
GASTEIGER

@<TRIPOS>ATOM
      1 C          62.9958   85.7677   12.4885 C.2     1  UNL1        0.3394
      2 O          63.9017   86.2265   13.5925 O.2     1  UNL1       -0.2452
      3 C          61.9362   83.8965   14.8709 C.3     1  UNL1        0.0271
      4 C          62.2673   82.7855   13.9190 C.2     1  UNL1       -0.0321
      5 C          62.0335   81.3593   14.3203 C.2     1  UNL1        0.0219
      6 C          62.3646   80.2484   13.3685 C.2     1  UNL1        0.1407
      7 F          62.1308   78.8220   13.7699 F       1  UNL1       -0.2042
      8 C          62.9294   80.5636   12.0151 C.2     1  UNL1        0.0449
      9 C          63.1632   81.9899   11.6137 C.2     1  UNL1        0.0690
     10 N          63.7039   82.6028   10.3560 N.2     1  UNL1       -0.2475
     11 C          63.7071   84.0926   10.5306 C.2     1  UNL1        0.1013
     12 C          63.1682   84.4004   11.8962 C.2     1  UNL1        0.0814
     13 C          62.8321   83.1008   12.5656 C.3     1  UNL1        0.0887
     14 O          61.9176   86.6763   11.9767 O.3     1  UNL1       -0.4456
     15 C          62.0708   87.3448   10.6427 C.3     1  UNL1        0.2087
     16 C          61.2573   86.8783    9.4720 C.3     1  UNL1        0.0445
     17 C          61.8519   85.9255    8.4777 C.3     1  UNL1        0.0210
     18 C          61.0385   85.4588    7.3069 C.3     1  UNL1        0.0722
     19 N          59.6304   85.9450    7.1306 N.3     1  UNL1       -0.2727
     20 C          59.0358   86.8977    8.1249 C.3     1  UNL1        0.0722
     21 C          59.8493   87.3644    9.2957 C.3     1  UNL1        0.0210
     22 C          60.0372   86.2286    7.7879 C.3     1  UNL1        0.0722
     23 C          60.7728   86.6505    8.8465 C.3     1  UNL1        0.0210
@<TRIPOS>BOND
     1     3     4    1
     2     4     5    2
     3     5     6    1
     4     6     7    1
     5     6     8    2
     6     8     9    1
     7     9    10    2
     8    10    11    1
     9    11    12    2
    10    12     1    1
    11     1     2    2
    12     1    14    1
    13    14    15    1
    14    15    16    1
    15    16    17    1
    16    17    18    1
    17    18    19    1
    18    19    20    1
    19    20    21    1
    20    19    22    1
    21    22    23    1
    22    12    13    1
    23    13     4    1
    24    13     9    1
    25    21    16    1
    26    23    16    1
@<TRIPOS>MOLECULE
*****
 23 26 0 0 0
SMALL
GASTEIGER

@<TRIPOS>ATOM
      1 C          62.5217   89.1872   12.2753 C.2     1  UNL1        0.3394
      2 O          61.0707   89.4907   12.5045 O.2     1  UNL1       -0.2452
      3 C          63.2562   91.3174    9.9899 C.3     1  UNL1        0.0271
      4 C          64.2176   91.8356   11.0181 C.2     1  UNL1       -0.0321
      5 C          65.0914   93.0130   10.7018 C.2     1  UNL1        0.0219
      6 C          66.0528   93.5312   11.7300 C.2     1  UNL1        0.1407
      7 F          66.9266   94.7087   11.4137 F       1  UNL1       -0.2042
      8 C          66.1403   92.8719   13.0746 C.2     1  UNL1        0.0449
      9 C          65.2665   91.6945   13.3909 C.2     1  UNL1        0.0690
     10 N          65.1319   90.8462   14.6206 N.2     1  UNL1       -0.2475
     11 C          64.0873   89.8037   14.3523 C.2     1  UNL1        0.1013
     12 C          63.5763   90.0077   12.9569 C.2     1  UNL1        0.0814
     13 C          64.3051   91.1764   12.3626 C.3     1  UNL1        0.0887
     14 O          62.9180   88.0631   11.3646 O.3     1  UNL1       -0.4456
     15 C          62.0227   86.8692   11.2134 C.3     1  UNL1        0.2087
     16 C          61.5105   86.4827    9.8575 C.3     1  UNL1        0.0445
     17 C          60.1491   86.9304    9.4146 C.3     1  UNL1        0.0210
     18 C          59.6368   86.5439    8.0587 C.3     1  UNL1        0.0722
     19 N          60.4860   85.7098    7.1459 N.3     1  UNL1       -0.2727
     20 C          61.8474   85.2622    7.5889 C.3     1  UNL1        0.0722
     21 C          62.3596   85.6486    8.9447 C.3     1  UNL1        0.0210
     22 C          60.8096   85.8966    7.8796 C.3     1  UNL1        0.0722
     23 C          61.2727   86.2461    9.1056 C.3     1  UNL1        0.0210
@<TRIPOS>BOND
     1     3     4    1
     2     4     5    2
     3     5     6    1
     4     6     7    1
     5     6     8    2
     6     8     9    1
     7     9    10    2
     8    10    11    1
     9    11    12    2
    10    12     1    1
    11     1     2    2
    12     1    14    1
    13    14    15    1
    14    15    16    1
    15    16    17    1
    16    17    18    1
    17    18    19    1
    18    19    20    1
    19    20    21    1
    20    19    22    1
    21    22    23    1
    22    12    13    1
    23    13     4    1
    24    13     9    1
    25    21    16    1
    26    23    16    1
@<TRIPOS>MOLECULE
*****
 23 26 0 0 0
SMALL
GASTEIGER

@<TRIPOS>ATOM
      1 C          64.0003   90.8815   13.4919 C.2     1  UNL1        0.3394
      2 O          63.6537   91.5416   14.7935 O.2     1  UNL1       -0.2452
      3 C          62.4416   90.7889   10.6879 C.3     1  UNL1        0.0271
      4 C          62.4512   89.3076   10.9241 C.2     1  UNL1       -0.0321
      5 C          61.8220   88.3845    9.9232 C.2     1  UNL1        0.0219
      6 C          61.8315   86.9033   10.1593 C.2     1  UNL1        0.1407
      7 F          61.2023   85.9801    9.1583 F       1  UNL1       -0.2042
      8 C          62.4702   86.3451   11.3965 C.2     1  UNL1        0.0449
      9 C          63.0994   87.2683   12.3975 C.2     1  UNL1        0.0690
     10 N          63.7985   87.0109   13.6994 N.2     1  UNL1       -0.2475
     11 C          64.2211   88.3332   14.2678 C.2     1  UNL1        0.1013
     12 C          63.7831   89.4077   13.3172 C.2     1  UNL1        0.0814
     13 C          63.0899   88.7495   12.1613 C.3     1  UNL1        0.0887
     14 O          64.5640   91.6954   12.3650 O.3     1  UNL1       -0.4456
     15 C          65.9761   92.1965   12.4351 C.3     1  UNL1        0.2087
     16 C          66.6175   92.8035   11.2226 C.3     1  UNL1        0.0445
     17 C          67.6965   92.0593   10.4931 C.3     1  UNL1        0.0210
     18 C          68.3381   92.6663    9.2807 C.3     1  UNL1        0.0722
     19 N          67.9006   94.0174    8.7977 N.3     1  UNL1       -0.2727
     20 C          66.8217   94.7615    9.5272 C.3     1  UNL1        0.0722
     21 C          66.1801   94.1546   10.7396 C.3     1  UNL1        0.0210
     22 C          67.5196   93.7256    9.4668 C.3     1  UNL1        0.0722
     23 C          66.9396   93.1767   10.5631 C.3     1  UNL1        0.0210
@<TRIPOS>BOND
     1     3     4    1
     2     4     5    2
     3     5     6    1
     4     6     7    1
     5     6     8    2
     6     8     9    1
     7     9    10    2
     8    10    11    1
     9    11    12    2
    10    12     1    1
    11     1     2    2
    12     1    14    1
    13    14    15    1
    14    15    16    1
    15    16    17    1
    16    17    18    1
    17    18    19    1
    18    19    20    1
    19    20    21    1
    20    19    22    1
    21    22    23    1
    22    12    13    1
    23    13     4    1
    24    13     9    1
    25    21    16    1
    26    23    16    1
@<TRIPOS>MOLECULE
*****
 23 26 0 0 0
SMALL
GASTEIGER

@<TRIPOS>ATOM
      1 C          64.1292   86.4306   14.5845 C.2     1  UNL1        0.3394
      2 O          63.3069   86.0747   15.7875 O.2     1  UNL1       -0.2452
      3 C          62.4783   85.6625   11.9415 C.3     1  UNL1        0.0271
      4 C          62.5539   87.1359   11.6704 C.2     1  UNL1       -0.0321
      5 C          61.9266   87.7037   10.4319 C.2     1  UNL1        0.0219
      6 C          62.0022   89.1770   10.1608 C.2     1  UNL1        0.1407
      7 F          61.3748   89.7449    8.9221 F       1  UNL1       -0.2042
      8 C          62.7050   90.0827   11.1283 C.2     1  UNL1        0.0449
      9 C          63.3323   89.5148   12.3668 C.2     1  UNL1        0.0690
     10 N          64.0859   90.1556   13.4944 N.2     1  UNL1       -0.2475
     11 C          64.4762   89.0782   14.4623 C.2     1  UNL1        0.1013
     12 C          63.9637   87.7716   13.9330 C.2     1  UNL1        0.0814
     13 C          63.2567   88.0414   12.6379 C.3     1  UNL1        0.0887
     14 O          65.1169   85.4456   14.0330 O.3     1  UNL1       -0.4456
     15 C          65.0793   84.0148   14.4816 C.3     1  UNL1        0.2087
     16 C          64.0370   83.0846   13.9354 C.3     1  UNL1        0.0445
     17 C          64.2157   82.4724   12.5776 C.3     1  UNL1        0.0210
     18 C          63.1734   81.5422   12.0313 C.3     1  UNL1        0.0722
     19 N          61.9525   81.2242   12.8428 N.3     1  UNL1       -0.2727
     20 C          61.7738   81.8365   14.2004 C.3     1  UNL1        0.0722
     21 C          62.8161   82.7667   14.7467 C.3     1  UNL1        0.0210
     22 C          62.4964   81.7396   13.1842 C.3     1  UNL1        0.0722
     23 C          63.4388   82.5807   13.6781 C.3     1  UNL1        0.0210
@<TRIPOS>BOND
     1     3     4    1
     2     4     5    2
     3     5     6    1
     4     6     7    1
     5     6     8    2
     6     8     9    1
     7     9    10    2
     8    10    11    1
     9    11    12    2
    10    12     1    1
    11     1     2    2
    12     1    14    1
    13    14    15    1
    14    15    16    1
    15    16    17    1
    16    17    18    1
    17    18    19    1
    18    19    20    1
    19    20    21    1
    20    19    22    1
    21    22    23    1
    22    12    13    1
    23    13     4    1
    24    13     9    1
    25    21    16    1
    26    23    16    1
@<TRIPOS>MOLECULE
*****
 23 26 0 0 0
SMALL
GASTEIGER

@<TRIPOS>ATOM
      1 C          61.9863   87.7988   11.5127 C.2     1  UNL1        0.3394
      2 O          60.5115   87.6687   11.7539 O.2     1  UNL1       -0.2452
      3 C          63.7369   88.0858   14.1874 C.3     1  UNL1        0.0271
      4 C          64.1003   89.4193   13.6045 C.2     1  UNL1       -0.0321
      5 C          65.0306   90.3333   14.3456 C.2     1  UNL1        0.0219
      6 C          65.3940   91.6667   13.7628 C.2     1  UNL1        0.1407
      7 F          66.3243   92.5807   14.5040 F       1  UNL1       -0.2042
      8 C          64.8271   92.0863   12.4389 C.2     1  UNL1        0.0449
      9 C          63.8968   91.1723   11.6979 C.2     1  UNL1        0.0690
     10 N          63.1871   91.3130   10.3839 N.2     1  UNL1       -0.2475
     11 C          62.3850   90.0663   10.1547 C.2     1  UNL1        0.1013
     12 C          62.5990   89.1553   11.3269 C.2     1  UNL1        0.0814
     13 C          63.5334   89.8388   12.2807 C.3     1  UNL1        0.0887
     14 O          62.8483   86.5724   11.4573 O.3     1  UNL1       -0.4456
     15 C          62.2164   85.2154   11.3613 C.3     1  UNL1        0.2087
     16 C          62.5991   84.1394   12.3339 C.3     1  UNL1        0.0445
     17 C          62.7110   84.4553   13.7960 C.3     1  UNL1        0.0210
     18 C          63.0936   83.3794   14.7686 C.3     1  UNL1        0.0722
     19 N          63.3644   81.9875   14.2791 N.3     1  UNL1       -0.2727
     20 C          63.2525   81.6717   12.8170 C.3     1  UNL1        0.0722
     21 C          62.8699   82.7476   11.8444 C.3     1  UNL1        0.0210
     22 C          63.1578   82.5439   13.7083 C.3     1  UNL1        0.0722
     23 C          62.8118   83.5168   12.8289 C.3     1  UNL1        0.0210
@<TRIPOS>BOND
     1     3     4    1
     2     4     5    2
     3     5     6    1
     4     6     7    1
     5     6     8    2
     6     8     9    1
     7     9    10    2
     8    10    11    1
     9    11    12    2
    10    12     1    1
    11     1     2    2
    12     1    14    1
    13    14    15    1
    14    15    16    1
    15    16    17    1
    16    17    18    1
    17    18    19    1
    18    19    20    1
    19    20    21    1
    20    19    22    1
    21    22    23    1
    22    12    13    1
    23    13     4    1
    24    13     9    1
    25    21    16    1
    26    23    16    1
@<TRIPOS>MOLECULE
*****
 23 26 0 0 0
SMALL
GASTEIGER

@<TRIPOS>ATOM
      1 C          63.0643   85.3569   13.5389 C.2     1  UNL1        0.3394
      2 O          62.0613   84.9191   14.5647 O.2     1  UNL1       -0.2452
      3 C          64.0255   88.3741   14.0615 C.3     1  UNL1        0.0271
      4 C          63.4182   88.6222   12.7126 C.2     1  UNL1       -0.0321
      5 C          63.4467   89.9995   12.1191 C.2     1  UNL1        0.0219
      6 C          62.8394   90.2477   10.7702 C.2     1  UNL1        0.1407
      7 F          62.8679   91.6251   10.1767 F       1  UNL1       -0.2042
      8 C          62.2035   89.1185   10.0147 C.2     1  UNL1        0.0449
      9 C          62.1751   87.7412   10.6082 C.2     1  UNL1        0.0690
     10 N          61.6226   86.4416   10.1023 N.2     1  UNL1       -0.2475
     11 C          61.8885   85.3903   11.1387 C.2     1  UNL1        0.1013
     12 C          62.6053   86.0401   12.2850 C.2     1  UNL1        0.0814
     13 C          62.7824   87.4931   11.9571 C.3     1  UNL1        0.0887
     14 O          64.5264   85.1114   13.7672 O.3     1  UNL1       -0.4456
     15 C          65.1049   83.7489   13.5250 C.3     1  UNL1        0.2087
     16 C          64.3279   82.7325   12.7419 C.3     1  UNL1        0.0445
     17 C          64.3829   82.7387   11.2428 C.3     1  UNL1        0.0210
     18 C          63.6059   81.7223   10.4596 C.3     1  UNL1        0.0722
     19 N          62.7739   80.6999   11.1755 N.3     1  UNL1       -0.2727
     20 C          62.7188   80.6938   12.6744 C.3     1  UNL1        0.0722
     21 C          63.4958   81.7101   13.4576 C.3     1  UNL1        0.0210
     22 C          63.1824   81.2368   11.6476 C.3     1  UNL1        0.0722
     23 C          63.8850   82.1558   12.3557 C.3     1  UNL1        0.0210
@<TRIPOS>BOND
     1     3     4    1
     2     4     5    2
     3     5     6    1
     4     6     7    1
     5     6     8    2
     6     8     9    1
     7     9    10    2
     8    10    11    1
     9    11    12    2
    10    12     1    1
    11     1     2    2
    12     1    14    1
    13    14    15    1
    14    15    16    1
    15    16    17    1
    16    17    18    1
    17    18    19    1
    18    19    20    1
    19    20    21    1
    20    19    22    1
    21    22    23    1
    22    12    13    1
    23    13     4    1
    24    13     9    1
    25    21    16    1
    26    23    16    1
@<TRIPOS>MOLECULE
*****
 23 26 0 0 0
SMALL
GASTEIGER

@<TRIPOS>ATOM
      1 C          63.6409   84.8258   13.4647 C.2     1  UNL1        0.3394
      2 O          65.0442   85.1334   13.8960 O.2     1  UNL1       -0.2452
      3 C          64.2994   83.4916   10.6209 C.3     1  UNL1        0.0271
      4 C          63.6401   82.2865   11.2235 C.2     1  UNL1       -0.0321
      5 C          63.5142   81.0227   10.4254 C.2     1  UNL1        0.0219
      6 C          62.8550   79.8177   11.0280 C.2     1  UNL1        0.1407
      7 F          62.7291   78.5539   10.2298 F       1  UNL1       -0.2042
      8 C          62.3215   79.8764   12.4287 C.2     1  UNL1        0.0449
      9 C          62.4473   81.1402   13.2268 C.2     1  UNL1        0.0690
     10 N          62.0198   81.4939   14.6204 N.2     1  UNL1       -0.2475
     11 C          62.4149   82.9176   14.8791 C.2     1  UNL1        0.1013
     12 C          63.0866   83.4438   13.6454 C.2     1  UNL1        0.0814
     13 C          63.1067   82.3452   12.6242 C.3     1  UNL1        0.0887
     14 O          62.7919   85.9004   12.8526 O.3     1  UNL1       -0.4456
     15 C          62.1224   85.6655   11.5311 C.3     1  UNL1        0.2087
     16 C          61.6716   86.8307   10.7010 C.3     1  UNL1        0.0445
     17 C          62.2507   88.1931   10.9438 C.3     1  UNL1        0.0210
     18 C          61.8000   89.3584   10.1138 C.3     1  UNL1        0.0722
     19 N          60.7703   89.1614    9.0409 N.3     1  UNL1       -0.2727
     20 C          60.1914   87.7991    8.7981 C.3     1  UNL1        0.0722
     21 C          60.6420   86.6338    9.6281 C.3     1  UNL1        0.0210
     22 C          60.9860   88.4926    9.4701 C.3     1  UNL1        0.0722
     23 C          61.3935   87.4390   10.2207 C.3     1  UNL1        0.0210
@<TRIPOS>BOND
     1     3     4    1
     2     4     5    2
     3     5     6    1
     4     6     7    1
     5     6     8    2
     6     8     9    1
     7     9    10    2
     8    10    11    1
     9    11    12    2
    10    12     1    1
    11     1     2    2
    12     1    14    1
    13    14    15    1
    14    15    16    1
    15    16    17    1
    16    17    18    1
    17    18    19    1
    18    19    20    1
    19    20    21    1
    20    19    22    1
    21    22    23    1
    22    12    13    1
    23    13     4    1
    24    13     9    1
    25    21    16    1
    26    23    16    1
