@<TRIPOS>MOLECULE
*****
 23 24 0 0 0
SMALL
GASTEIGER

@<TRIPOS>ATOM
      1 O          61.6127   84.5792   14.9092 O.2     1  UNL1       -0.2751
      2 C          63.0078   84.0286   14.9359 C.2     1  UNL1        0.2224
      3 N          64.1585   84.9186   15.3014 N.am    1  UNL1       -0.3060
      4 H          65.0741   84.5572   15.3190 H       1  UNL1        0.1494
      5 C          63.9142   86.3592   15.6403 C.3     1  UNL1        0.0717
      6 C          63.2253   86.7217   16.9225 C.3     1  UNL1        0.0220
      7 C          62.9810   88.1624   17.2614 C.3     1  UNL1        0.0309
      8 C          63.4256   89.2405   16.3180 C.3     1  UNL1        0.1106
      9 O          63.1813   90.6812   16.6569 O.3     1  UNL1       -0.3845
     10 C          64.1145   88.8780   15.0358 C.3     1  UNL1        0.0309
     11 C          64.3588   87.4374   14.6970 C.3     1  UNL1        0.0220
     12 H          63.5276   91.2437   15.9465 H       1  UNL1        0.2103
     13 C          63.2520   82.5878   14.5970 C.3     1  UNL1        0.0850
     14 C          62.3306   81.8726   13.6539 C.3     1  UNL1        0.0096
     15 C          62.8940   80.9866   12.5827 C.3     1  UNL1        0.0008
     16 C          63.1641   81.5416   11.2155 C.3     1  UNL1        0.0047
     17 C          63.9510   82.8093   11.0627 C.3     1  UNL1        0.0264
     18 C          63.2905   84.0412   10.5182 C.ar    1  UNL1       -0.0222
     19 C          62.4917   84.9278   11.4268 C.ar    1  UNL1       -0.0043
     20 C          61.8312   86.1595   10.8823 C.ar    1  UNL1       -0.0003
     21 C          61.9696   86.5046    9.4291 C.ar    1  UNL1       -0.0000
     22 C          62.7684   85.6180    8.5204 C.ar    1  UNL1       -0.0003
     23 C          63.4289   84.3862    9.0650 C.ar    1  UNL1       -0.0043
@<TRIPOS>BOND
     1     1     2    2
     2     2    13    1
     3    13    14    1
     4    14    15    1
     5    15    16    1
     6    16    17    1
     7    17    18    1
     8    18    19   ar
     9    19    20   ar
    10    20    21   ar
    11    21    22   ar
    12    22    23   ar
    13     2     3   am
    14     5     3    1
    15     5     6    1
    16     6     7    1
    17     7     8    1
    18     8     9    1
    19     8    10    1
    20    10    11    1
    21    23    18   ar
    22    11     5    1
    23     3     4    1
    24     9    12    1
@<TRIPOS>MOLECULE
*****
 23 24 0 0 0
SMALL
GASTEIGER

@<TRIPOS>ATOM
      1 O          61.6352   84.6218   15.0415 O.2     1  UNL1       -0.2751
      2 C          63.0401   84.0969   15.0141 C.2     1  UNL1        0.2224
      3 N          64.1894   85.0146   15.3087 N.am    1  UNL1       -0.3060
      4 H          65.1115   84.6701   15.2908 H       1  UNL1        0.1494
      5 C          63.9339   86.4571   15.6307 C.3     1  UNL1        0.0717
      6 C          64.3733   87.5278   14.6765 C.3     1  UNL1        0.0220
      7 C          64.1177   88.9704   14.9985 C.3     1  UNL1        0.0309
      8 C          63.4227   89.3423   16.2747 C.3     1  UNL1        0.1106
      9 O          63.1671   90.7849   16.5968 O.3     1  UNL1       -0.3845
     10 C          62.9833   88.2716   17.2289 C.3     1  UNL1        0.0309
     11 C          63.2389   86.8290   16.9070 C.3     1  UNL1        0.0220
     12 H          62.7128   90.8498   17.4513 H       1  UNL1        0.2103
     13 C          63.2956   82.6543   14.6921 C.3     1  UNL1        0.0850
     14 C          62.3727   81.9174   13.7674 C.3     1  UNL1        0.0096
     15 C          62.9344   81.0073   12.7156 C.3     1  UNL1        0.0008
     16 C          63.1514   81.5163   11.3214 C.3     1  UNL1        0.0047
     17 C          63.9459   82.7683   11.0952 C.3     1  UNL1        0.0264
     18 C          63.2763   83.9922   10.5440 C.ar    1  UNL1       -0.0222
     19 C          63.4638   84.3652    9.1033 C.ar    1  UNL1       -0.0043
     20 C          62.7942   85.5890    8.5522 C.ar    1  UNL1       -0.0003
     21 C          61.9371   86.4399    9.4418 C.ar    1  UNL1       -0.0000
     22 C          61.7497   86.0670   10.8825 C.ar    1  UNL1       -0.0003
     23 C          62.4193   84.8431   11.4336 C.ar    1  UNL1       -0.0043
@<TRIPOS>BOND
     1     1     2    2
     2     2    13    1
     3    13    14    1
     4    14    15    1
     5    15    16    1
     6    16    17    1
     7    17    18    1
     8    18    19   ar
     9    19    20   ar
    10    20    21   ar
    11    21    22   ar
    12    22    23   ar
    13     2     3   am
    14     5     3    1
    15     5     6    1
    16     6     7    1
    17     7     8    1
    18     8     9    1
    19     8    10    1
    20    10    11    1
    21    23    18   ar
    22    11     5    1
    23     3     4    1
    24     9    12    1
@<TRIPOS>MOLECULE
*****
 23 24 0 0 0
SMALL
GASTEIGER

@<TRIPOS>ATOM
      1 O          59.9174   90.4073   10.4133 O.2     1  UNL1       -0.2751
      2 C          60.5547   89.2596    9.6875 C.2     1  UNL1        0.2224
      3 N          62.0022   88.9391    9.9154 N.am    1  UNL1       -0.3060
      4 H          62.4205   88.1859    9.4390 H       1  UNL1        0.1494
      5 C          62.8124   89.7662   10.8690 C.3     1  UNL1        0.0717
      6 C          63.0378   89.2874   12.2725 C.3     1  UNL1        0.0220
      7 C          63.8480   90.1146   13.2261 C.3     1  UNL1        0.0309
      8 C          64.4328   91.4206   12.7762 C.3     1  UNL1        0.1106
      9 O          65.2430   92.2478   13.7298 O.3     1  UNL1       -0.3845
     10 C          64.2074   91.8994   11.3727 C.3     1  UNL1        0.0309
     11 C          63.3972   91.0723   10.4190 C.3     1  UNL1        0.0220
     12 H          65.5442   93.0543   13.2829 H       1  UNL1        0.2103
     13 C          59.7444   88.4325    8.7339 C.3     1  UNL1        0.0850
     14 C          59.8463   86.9363    8.7653 C.3     1  UNL1        0.0096
     15 C          60.3635   86.1945    7.5685 C.3     1  UNL1        0.0008
     16 C          61.6048   85.3601    7.6820 C.3     1  UNL1        0.0047
     17 C          62.7075   85.7784    8.6088 C.3     1  UNL1        0.0264
     18 C          62.9738   84.9945    9.8598 C.ar    1  UNL1       -0.0222
     19 C          63.7923   83.7391    9.7982 C.ar    1  UNL1       -0.0043
     20 C          64.0585   82.9552   11.0490 C.ar    1  UNL1       -0.0003
     21 C          63.5062   83.4269   12.3615 C.ar    1  UNL1       -0.0000
     22 C          62.6877   84.6824   12.4231 C.ar    1  UNL1       -0.0003
     23 C          62.4215   85.4662   11.1722 C.ar    1  UNL1       -0.0043
@<TRIPOS>BOND
     1     1     2    2
     2     2    13    1
     3    13    14    1
     4    14    15    1
     5    15    16    1
     6    16    17    1
     7    17    18    1
     8    18    19   ar
     9    19    20   ar
    10    20    21   ar
    11    21    22   ar
    12    22    23   ar
    13     2     3   am
    14     5     3    1
    15     5     6    1
    16     6     7    1
    17     7     8    1
    18     8     9    1
    19     8    10    1
    20    10    11    1
    21    23    18   ar
    22    11     5    1
    23     3     4    1
    24     9    12    1
@<TRIPOS>MOLECULE
*****
 23 24 0 0 0
SMALL
GASTEIGER

@<TRIPOS>ATOM
      1 O          63.4544   88.6598   12.3458 O.2     1  UNL1       -0.2751
      2 C          62.5387   89.8134   12.0620 C.2     1  UNL1        0.2224
      3 N          63.0251   91.2202   12.2471 N.am    1  UNL1       -0.3060
      4 H          62.4240   91.9774   12.0609 H       1  UNL1        0.1494
      5 C          64.4272   91.4734   12.7160 C.3     1  UNL1        0.0717
      6 C          64.8739   90.9644   14.0544 C.3     1  UNL1        0.0220
      7 C          66.2761   91.2176   14.5232 C.3     1  UNL1        0.0309
      8 C          67.2316   91.9797   13.6536 C.3     1  UNL1        0.1106
      9 O          68.6338   92.2329   14.1224 O.3     1  UNL1       -0.3845
     10 C          66.7849   92.4886   12.3152 C.3     1  UNL1        0.0309
     11 C          65.3828   92.2355   11.8463 C.3     1  UNL1        0.0220
     12 H          69.1152   92.7348   13.4462 H       1  UNL1        0.2103
     13 C          61.1364   89.5602   11.5932 C.3     1  UNL1        0.0850
     14 C          60.8931   89.0051   10.2211 C.3     1  UNL1        0.0096
     15 C          60.0477   87.7783   10.0475 C.3     1  UNL1        0.0008
     16 C          60.5235   86.6574    9.1715 C.3     1  UNL1        0.0047
     17 C          61.9908   86.3702    9.0516 C.3     1  UNL1        0.0264
     18 C          62.6219   85.3172    9.9137 C.ar    1  UNL1       -0.0222
     19 C          62.4139   85.3402   11.3990 C.ar    1  UNL1       -0.0043
     20 C          63.0449   84.2873   12.2611 C.ar    1  UNL1       -0.0003
     21 C          63.8840   83.2114   11.6378 C.ar    1  UNL1       -0.0000
     22 C          64.0920   83.1885   10.1525 C.ar    1  UNL1       -0.0003
     23 C          63.4609   84.2414    9.2905 C.ar    1  UNL1       -0.0043
@<TRIPOS>BOND
     1     1     2    2
     2     2    13    1
     3    13    14    1
     4    14    15    1
     5    15    16    1
     6    16    17    1
     7    17    18    1
     8    18    19   ar
     9    19    20   ar
    10    20    21   ar
    11    21    22   ar
    12    22    23   ar
    13     2     3   am
    14     5     3    1
    15     5     6    1
    16     6     7    1
    17     7     8    1
    18     8     9    1
    19     8    10    1
    20    10    11    1
    21    23    18   ar
    22    11     5    1
    23     3     4    1
    24     9    12    1
@<TRIPOS>MOLECULE
*****
 23 24 0 0 0
SMALL
GASTEIGER

@<TRIPOS>ATOM
      1 O          63.2961   88.6942   12.7118 O.2     1  UNL1       -0.2751
      2 C          62.4292   89.8638   12.3502 C.2     1  UNL1        0.2224
      3 N          62.9907   91.2541   12.3896 N.am    1  UNL1       -0.3060
      4 H          62.4217   92.0217   12.1523 H       1  UNL1        0.1494
      5 C          64.4191   91.4749   12.7905 C.3     1  UNL1        0.0717
      6 C          65.3746   92.1249   11.8342 C.3     1  UNL1        0.0220
      7 C          66.8031   92.3457   12.2352 C.3     1  UNL1        0.0309
      8 C          67.2760   91.9166   13.5924 C.3     1  UNL1        0.1106
      9 O          68.7045   92.1374   13.9934 O.3     1  UNL1       -0.3845
     10 C          66.3205   91.2666   14.5488 C.3     1  UNL1        0.0309
     11 C          64.8921   91.0458   14.1478 C.3     1  UNL1        0.0220
     12 H          68.8426   91.8052   14.8942 H       1  UNL1        0.2103
     13 C          61.0007   89.6429   11.9493 C.3     1  UNL1        0.0850
     14 C          60.6826   88.8945   10.6889 C.3     1  UNL1        0.0096
     15 C          61.7855   88.5027    9.7507 C.3     1  UNL1        0.0008
     16 C          62.1136   87.0539    9.5423 C.3     1  UNL1        0.0047
     17 C          61.6825   86.0342   10.5543 C.3     1  UNL1        0.0264
     18 C          62.5996   84.9042   10.9180 C.ar    1  UNL1       -0.0222
     19 C          63.3776   84.1959    9.8489 C.ar    1  UNL1       -0.0043
     20 C          64.2946   83.0660   10.2126 C.ar    1  UNL1       -0.0003
     21 C          64.4337   82.6444   11.6454 C.ar    1  UNL1       -0.0000
     22 C          63.6557   83.3527   12.7145 C.ar    1  UNL1       -0.0003
     23 C          62.7387   84.4826   12.3508 C.ar    1  UNL1       -0.0043
@<TRIPOS>BOND
     1     1     2    2
     2     2    13    1
     3    13    14    1
     4    14    15    1
     5    15    16    1
     6    16    17    1
     7    17    18    1
     8    18    19   ar
     9    19    20   ar
    10    20    21   ar
    11    21    22   ar
    12    22    23   ar
    13     2     3   am
    14     5     3    1
    15     5     6    1
    16     6     7    1
    17     7     8    1
    18     8     9    1
    19     8    10    1
    20    10    11    1
    21    23    18   ar
    22    11     5    1
    23     3     4    1
    24     9    12    1
@<TRIPOS>MOLECULE
*****
 23 24 0 0 0
SMALL
GASTEIGER

@<TRIPOS>ATOM
      1 O          61.1330   89.5518   12.4861 O.2     1  UNL1       -0.2751
      2 C          62.4570   89.8037   11.8276 C.2     1  UNL1        0.2224
      3 N          62.7084   89.3070   10.4348 N.am    1  UNL1       -0.3060
      4 H          63.5774   89.4723   10.0026 H       1  UNL1        0.1494
      5 C          61.6359   88.5584    9.7004 C.3     1  UNL1        0.0717
      6 C          60.5722   89.3098    8.9561 C.3     1  UNL1        0.0220
      7 C          59.4996   88.5612    8.2218 C.3     1  UNL1        0.0309
      8 C          59.4907   87.0613    8.2317 C.3     1  UNL1        0.1106
      9 O          58.4181   86.3127    7.4974 O.3     1  UNL1       -0.3845
     10 C          60.5544   86.3099    8.9760 C.3     1  UNL1        0.0309
     11 C          61.6270   87.0584    9.7104 C.3     1  UNL1        0.0220
     12 H          58.5583   85.3589    7.6046 H       1  UNL1        0.2103
     13 C          63.5295   90.5523   12.5620 C.3     1  UNL1        0.0850
     14 C          64.1878   89.9360   13.7607 C.3     1  UNL1        0.0096
     15 C          65.0214   90.7824   14.6765 C.3     1  UNL1        0.0008
     16 C          66.2442   91.4749   14.1519 C.3     1  UNL1        0.0047
     17 C          66.1602   92.9007   13.6936 C.3     1  UNL1        0.0264
     18 C          66.5274   93.2583   12.2839 C.ar    1  UNL1       -0.0222
     19 C          67.2093   92.2498   11.4076 C.ar    1  UNL1       -0.0043
     20 C          67.5764   92.6074    9.9979 C.ar    1  UNL1       -0.0003
     21 C          67.2616   93.9735    9.4645 C.ar    1  UNL1       -0.0000
     22 C          66.5797   94.9820   10.3407 C.ar    1  UNL1       -0.0003
     23 C          66.2126   94.6244   11.7504 C.ar    1  UNL1       -0.0043
@<TRIPOS>BOND
     1     1     2    2
     2     2    13    1
     3    13    14    1
     4    14    15    1
     5    15    16    1
     6    16    17    1
     7    17    18    1
     8    18    19   ar
     9    19    20   ar
    10    20    21   ar
    11    21    22   ar
    12    22    23   ar
    13     2     3   am
    14     5     3    1
    15     5     6    1
    16     6     7    1
    17     7     8    1
    18     8     9    1
    19     8    10    1
    20    10    11    1
    21    23    18   ar
    22    11     5    1
    23     3     4    1
    24     9    12    1
@<TRIPOS>MOLECULE
*****
 23 24 0 0 0
SMALL
GASTEIGER

@<TRIPOS>ATOM
      1 O          62.6990   85.5702    9.5743 O.2     1  UNL1       -0.2751
      2 C          62.0367   85.7922   10.9017 C.2     1  UNL1        0.2224
      3 N          60.8536   86.7083   11.0057 N.am    1  UNL1       -0.3060
      4 H          60.4190   86.8541   11.8770 H       1  UNL1        0.1494
      5 C          60.3327   87.4024    9.7823 C.3     1  UNL1        0.0717
      6 C          59.6198   86.6178    8.7212 C.3     1  UNL1        0.0220
      7 C          59.0989   87.3119    7.4977 C.3     1  UNL1        0.0309
      8 C          59.2909   88.7907    7.3354 C.3     1  UNL1        0.1106
      9 O          58.7700   89.4848    6.1119 O.3     1  UNL1       -0.3845
     10 C          60.0039   89.5753    8.3965 C.3     1  UNL1        0.0309
     11 C          60.5248   88.8812    9.6199 C.3     1  UNL1        0.0220
     12 H          58.9763   90.4312    6.1645 H       1  UNL1        0.2103
     13 C          62.5577   85.0981   12.1252 C.3     1  UNL1        0.0850
     14 C          63.2138   83.7547   12.0032 C.3     1  UNL1        0.0096
     15 C          64.1018   83.2512   13.1023 C.3     1  UNL1        0.0008
     16 C          64.8272   84.2232   13.9851 C.3     1  UNL1        0.0047
     17 C          64.3086   84.5174   15.3615 C.3     1  UNL1        0.0264
     18 C          63.9373   85.9209   15.7389 C.ar    1  UNL1       -0.0222
     19 C          63.2301   86.1869   17.0347 C.ar    1  UNL1       -0.0043
     20 C          62.8587   87.5903   17.4121 C.ar    1  UNL1       -0.0003
     21 C          63.1945   88.7277   16.4937 C.ar    1  UNL1       -0.0000
     22 C          63.9017   88.4617   15.1979 C.ar    1  UNL1       -0.0003
     23 C          64.2731   87.0583   14.8205 C.ar    1  UNL1       -0.0043
@<TRIPOS>BOND
     1     1     2    2
     2     2    13    1
     3    13    14    1
     4    14    15    1
     5    15    16    1
     6    16    17    1
     7    17    18    1
     8    18    19   ar
     9    19    20   ar
    10    20    21   ar
    11    21    22   ar
    12    22    23   ar
    13     2     3   am
    14     5     3    1
    15     5     6    1
    16     6     7    1
    17     7     8    1
    18     8     9    1
    19     8    10    1
    20    10    11    1
    21    23    18   ar
    22    11     5    1
    23     3     4    1
    24     9    12    1
@<TRIPOS>MOLECULE
*****
 23 24 0 0 0
SMALL
GASTEIGER

@<TRIPOS>ATOM
      1 O          61.1242   85.9804   10.1361 O.2     1  UNL1       -0.2751
      2 C          61.9203   86.8041   11.1045 C.2     1  UNL1        0.2224
      3 N          62.7405   86.1308   12.1646 N.am    1  UNL1       -0.3060
      4 H          63.2630   86.6715   12.8002 H       1  UNL1        0.1494
      5 C          62.7647   84.6339   12.2563 C.3     1  UNL1        0.0717
      6 C          62.3899   83.9549   13.5402 C.3     1  UNL1        0.0220
      7 C          62.4142   82.4579   13.6319 C.3     1  UNL1        0.0309
      8 C          62.8131   81.6399   12.4396 C.3     1  UNL1        0.1106
      9 O          62.8374   80.1428   12.5312 O.3     1  UNL1       -0.3845
     10 C          63.1879   82.3188   11.1556 C.3     1  UNL1        0.0309
     11 C          63.1637   83.8158   11.0639 C.3     1  UNL1        0.0220
     12 H          63.1149   79.7712   11.6793 H       1  UNL1        0.2103
     13 C          61.8960   88.3012   11.0128 C.3     1  UNL1        0.0850
     14 C          63.0354   89.1050   11.5656 C.3     1  UNL1        0.0096
     15 C          62.8045   90.0422   12.7138 C.3     1  UNL1        0.0008
     16 C          63.9677   90.5494   13.5136 C.3     1  UNL1        0.0047
     17 C          64.0209   90.3116   14.9936 C.3     1  UNL1        0.0264
     18 C          63.8329   88.9265   15.5380 C.ar    1  UNL1       -0.0222
     19 C          63.0451   88.7159   16.7969 C.ar    1  UNL1       -0.0043
     20 C          62.8572   87.3309   17.3411 C.ar    1  UNL1       -0.0003
     21 C          63.4571   86.1564   16.6265 C.ar    1  UNL1       -0.0000
     22 C          64.2449   86.3670   15.3676 C.ar    1  UNL1       -0.0003
     23 C          64.4328   87.7520   14.8233 C.ar    1  UNL1       -0.0043
@<TRIPOS>BOND
     1     1     2    2
     2     2    13    1
     3    13    14    1
     4    14    15    1
     5    15    16    1
     6    16    17    1
     7    17    18    1
     8    18    19   ar
     9    19    20   ar
    10    20    21   ar
    11    21    22   ar
    12    22    23   ar
    13     2     3   am
    14     5     3    1
    15     5     6    1
    16     6     7    1
    17     7     8    1
    18     8     9    1
    19     8    10    1
    20    10    11    1
    21    23    18   ar
    22    11     5    1
    23     3     4    1
    24     9    12    1
@<TRIPOS>MOLECULE
*****
 23 24 0 0 0
SMALL
GASTEIGER

@<TRIPOS>ATOM
      1 O          63.0164   85.8327   12.8851 O.2     1  UNL1       -0.2751
      2 C          64.0040   85.4199   13.9360 C.2     1  UNL1        0.2224
      3 N          64.5425   84.0200   13.9506 N.am    1  UNL1       -0.3060
      4 H          65.1907   83.7491   14.6403 H       1  UNL1        0.1494
      5 C          64.0935   83.0329   12.9143 C.3     1  UNL1        0.0717
      6 C          63.2486   81.8593   13.3128 C.3     1  UNL1        0.0220
      7 C          62.7996   80.8721   12.2764 C.3     1  UNL1        0.0309
      8 C          63.1954   81.0586   10.8417 C.3     1  UNL1        0.1106
      9 O          62.7463   80.0715    9.8053 O.3     1  UNL1       -0.3845
     10 C          64.0402   82.2323   10.4432 C.3     1  UNL1        0.0309
     11 C          64.4893   83.2194   11.4795 C.3     1  UNL1        0.0220
     12 H          63.0863   80.3375    8.9367 H       1  UNL1        0.2103
     13 C          64.4531   86.4071   14.9723 C.3     1  UNL1        0.0850
     14 C          64.4155   87.8767   14.6742 C.3     1  UNL1        0.0096
     15 C          63.6926   88.8111   15.5984 C.3     1  UNL1        0.0008
     16 C          63.8066   90.2943   15.4052 C.3     1  UNL1        0.0047
     17 C          64.7624   90.8472   14.3900 C.3     1  UNL1        0.0264
     18 C          64.3090   91.0731   12.9781 C.ar    1  UNL1       -0.0222
     19 C          63.1147   90.3373   12.4470 C.ar    1  UNL1       -0.0043
     20 C          62.6614   90.5632   11.0351 C.ar    1  UNL1       -0.0003
     21 C          63.4024   91.5251   10.1543 C.ar    1  UNL1       -0.0000
     22 C          64.5967   92.2610   10.6854 C.ar    1  UNL1       -0.0003
     23 C          65.0500   92.0350   12.0973 C.ar    1  UNL1       -0.0043
@<TRIPOS>BOND
     1     1     2    2
     2     2    13    1
     3    13    14    1
     4    14    15    1
     5    15    16    1
     6    16    17    1
     7    17    18    1
     8    18    19   ar
     9    19    20   ar
    10    20    21   ar
    11    21    22   ar
    12    22    23   ar
    13     2     3   am
    14     5     3    1
    15     5     6    1
    16     6     7    1
    17     7     8    1
    18     8     9    1
    19     8    10    1
    20    10    11    1
    21    23    18   ar
    22    11     5    1
    23     3     4    1
    24     9    12    1
