@<TRIPOS>MOLECULE
*****
 38 41 0 0 0
SMALL
GASTEIGER

@<TRIPOS>ATOM
      1 C          64.9823   90.7442   14.9223 C.ar    1  UNL1        0.1353
      2 N          63.8307   90.5422   15.8621 N.ar    1  UNL1       -0.2279
      3 C          63.2803   89.1660   15.6317 C.ar    1  UNL1        0.1171
      4 C          64.0917   88.5174   14.5495 C.ar    1  UNL1        0.0769
      5 N          65.1436   89.4928   14.1111 N.ar    1  UNL1       -0.3394
      6 H          65.8209   89.3387   13.4135 H       1  UNL1        0.1671
      7 C          65.6428   92.3784   12.1760 C.2     1  UNL1        0.2439
      8 O          64.7697   91.1754   11.9750 O.2     1  UNL1       -0.2731
      9 N          66.1282   92.7317   13.5506 N.am    1  UNL1       -0.2730
     10 C          67.0025   93.8981   13.9042 C.3     1  UNL1        0.0939
     11 C          67.2392   93.8679   15.3851 C.3     1  UNL1        0.0237
     12 C          66.5112   92.6827   15.9467 C.3     1  UNL1        0.0293
     13 C          65.8246   91.9805   14.8129 C.3     1  UNL1        0.1319
     14 C          66.0306   93.2282   11.0023 C.3     1  UNL1        0.1512
     15 C          65.5168   95.7592   10.7187 C.2     1  UNL1        0.4021
     16 O          66.8262   96.0976   11.3674 O.2     1  UNL1       -0.2264
     17 N          65.1190   94.3244   10.5362 N.am    1  UNL1       -0.2640
     18 H          64.2596   94.1023   10.1104 H       1  UNL1        0.1532
     19 C          64.0911   96.8548    8.8434 C.3     1  UNL1        0.2573
     20 O          64.6052   96.8553   10.2526 O.3     1  UNL1       -0.4306
     21 C          67.3300   92.9817   10.2947 C.3     1  UNL1        0.0270
     22 C          67.6258   93.6848    9.0031 C.3     1  UNL1        0.0022
     23 C          68.3338   92.0322   10.8787 C.3     1  UNL1        0.0022
     24 C          63.8872   87.1360   14.0019 C.ar    1  UNL1        0.0172
     25 C          64.4455   85.9499   14.7309 C.ar    1  UNL1        0.0015
     26 C          64.2409   84.5686   14.1833 C.ar    1  UNL1        0.0000
     27 C          63.4781   84.3732   12.9066 C.ar    1  UNL1        0.0000
     28 C          62.9198   85.5593   12.1776 C.ar    1  UNL1        0.0000
     29 C          63.1243   86.9406   12.7252 C.ar    1  UNL1        0.0015
     30 C          63.2735   82.9918   12.3590 C.ar    1  UNL1       -0.0000
     31 C          62.7974   81.8909   13.2597 C.ar    1  UNL1       -0.0002
     32 C          62.5928   80.5094   12.7120 C.ar    1  UNL1       -0.0019
     33 C          62.8645   80.2290   11.2638 C.ar    1  UNL1        0.0070
     34 C          63.3407   81.3300   10.3631 C.ar    1  UNL1       -0.0019
     35 C          63.5452   82.7113   10.9107 C.ar    1  UNL1       -0.0002
     36 C          62.6600   78.8476   10.7161 C.3     1  UNL1        0.1636
     37 O          63.3507   78.4326    9.4509 O.3     1  UNL1       -0.3772
     38 H          63.0067   78.9540    8.7088 H       1  UNL1        0.2109
@<TRIPOS>BOND
     1    19    20    1
     2    20    15    1
     3    15    16    2
     4    15    17   am
     5    14    17    1
     6    14     7    1
     7     7     8    2
     8     7     9   am
     9     9    10    1
    10    10    11    1
    11    11    12    1
    12    12    13    1
    13    13     1    1
    14     1     2   ar
    15     2     3   ar
    16     3     4   ar
    17     4    24    1
    18    24    25   ar
    19    25    26   ar
    20    26    27   ar
    21    27    30    1
    22    30    31   ar
    23    31    32   ar
    24    32    33   ar
    25    33    36    1
    26    36    37    1
    27    33    34   ar
    28    34    35   ar
    29    27    28   ar
    30    28    29   ar
    31     4     5   ar
    32    14    21    1
    33    21    22    1
    34    21    23    1
    35    13     9    1
    36     5     1   ar
    37    29    24   ar
    38    35    30   ar
    39    17    18    1
    40    37    38    1
    41     5     6    1
@<TRIPOS>MOLECULE
*****
 38 41 0 0 0
SMALL
GASTEIGER

@<TRIPOS>ATOM
      1 C          65.0848   91.2595   14.7827 C.ar    1  UNL1        0.1353
      2 N          63.6608   91.3009   15.2526 N.ar    1  UNL1       -0.2279
      3 C          63.0307   89.9762   14.9393 C.ar    1  UNL1        0.1171
      4 C          64.0651   89.1161   14.2759 C.ar    1  UNL1        0.0769
      5 N          65.3346   89.9093   14.1791 N.ar    1  UNL1       -0.3394
      6 H          66.1829   89.5982   13.7881 H       1  UNL1        0.1671
      7 C          65.9371   93.3225   12.4022 C.2     1  UNL1        0.2439
      8 O          64.9101   92.3090   11.9924 O.2     1  UNL1       -0.2731
      9 N          66.4752   93.3211   13.8023 N.am    1  UNL1       -0.2730
     10 C          67.4996   94.2678   14.3541 C.3     1  UNL1        0.0939
     11 C          67.7410   93.9046   15.7893 C.3     1  UNL1        0.0237
     12 C          66.8657   92.7335   16.1246 C.3     1  UNL1        0.0293
     13 C          66.0835   92.3729   14.8966 C.3     1  UNL1        0.1319
     14 C          66.4261   94.3374   11.4118 C.3     1  UNL1        0.1512
     15 C          68.3499   92.7775   10.6272 C.2     1  UNL1        0.4021
     16 O          68.2311   91.9913   11.8991 O.2     1  UNL1       -0.2264
     17 N          67.4474   93.9506   10.3836 N.am    1  UNL1       -0.2640
     18 H          67.5253   94.4667    9.5488 H       1  UNL1        0.1532
     19 C          68.9386   92.0478    8.2042 C.3     1  UNL1        0.2573
     20 O          69.3712   92.3908    9.5990 O.3     1  UNL1       -0.4306
     21 C          65.8937   95.7392   11.4497 C.3     1  UNL1        0.0270
     22 C          66.2541   96.6479   12.5875 C.3     1  UNL1        0.0022
     23 C          65.0008   96.2325   10.3499 C.3     1  UNL1        0.0022
     24 C          63.8652   87.7098   13.7938 C.ar    1  UNL1        0.0172
     25 C          63.1384   87.4543   12.5068 C.ar    1  UNL1        0.0015
     26 C          62.9385   86.0480   12.0248 C.ar    1  UNL1        0.0000
     27 C          63.4655   84.8972   12.8298 C.ar    1  UNL1        0.0000
     28 C          64.1923   85.1527   14.1168 C.ar    1  UNL1        0.0000
     29 C          64.3921   86.5590   14.5988 C.ar    1  UNL1        0.0015
     30 C          63.2656   83.4909   12.3478 C.ar    1  UNL1       -0.0000
     31 C          62.6037   82.4802   13.2368 C.ar    1  UNL1       -0.0002
     32 C          62.4038   81.0739   12.7547 C.ar    1  UNL1       -0.0019
     33 C          62.8658   80.6783   11.3836 C.ar    1  UNL1        0.0070
     34 C          63.5277   81.6890   10.4945 C.ar    1  UNL1       -0.0019
     35 C          63.7276   83.0953   10.9766 C.ar    1  UNL1       -0.0002
     36 C          62.6659   79.2720   10.9015 C.3     1  UNL1        0.1636
     37 O          62.7850   78.9562    9.4400 O.3     1  UNL1       -0.3772
     38 H          62.0704   79.3973    8.9546 H       1  UNL1        0.2109
@<TRIPOS>BOND
     1    19    20    1
     2    20    15    1
     3    15    16    2
     4    15    17   am
     5    14    17    1
     6    14     7    1
     7     7     8    2
     8     7     9   am
     9     9    10    1
    10    10    11    1
    11    11    12    1
    12    12    13    1
    13    13     1    1
    14     1     2   ar
    15     2     3   ar
    16     3     4   ar
    17     4    24    1
    18    24    25   ar
    19    25    26   ar
    20    26    27   ar
    21    27    30    1
    22    30    31   ar
    23    31    32   ar
    24    32    33   ar
    25    33    36    1
    26    36    37    1
    27    33    34   ar
    28    34    35   ar
    29    27    28   ar
    30    28    29   ar
    31     4     5   ar
    32    14    21    1
    33    21    22    1
    34    21    23    1
    35    13     9    1
    36     5     1   ar
    37    29    24   ar
    38    35    30   ar
    39    17    18    1
    40    37    38    1
    41     5     6    1
@<TRIPOS>MOLECULE
*****
 38 41 0 0 0
SMALL
GASTEIGER

@<TRIPOS>ATOM
      1 C          60.4675   88.0002    8.9023 C.ar    1  UNL1        0.1353
      2 N          59.0814   87.5665    8.5270 N.ar    1  UNL1       -0.2279
      3 C          58.6439   88.3824    7.3469 C.ar    1  UNL1        0.1171
      4 C          59.7595   89.3205    6.9927 C.ar    1  UNL1        0.0769
      5 N          60.8865   89.0842    7.9540 N.ar    1  UNL1       -0.3394
      6 H          61.7497   89.5576    7.9612 H       1  UNL1        0.1671
      7 C          61.9877   89.7439   11.2039 C.2     1  UNL1        0.2439
      8 O          61.2385   90.5746   10.2046 O.2     1  UNL1       -0.2731
      9 N          61.9888   88.2486   11.0860 N.am    1  UNL1       -0.2730
     10 C          62.6888   87.2921   12.0054 C.3     1  UNL1        0.0939
     11 C          62.4227   85.8996   11.5156 C.3     1  UNL1        0.0237
     12 C          61.5581   85.9953   10.2935 C.3     1  UNL1        0.0293
     13 C          61.2900   87.4471   10.0281 C.3     1  UNL1        0.1319
     14 C          62.7359   90.4086   12.3212 C.3     1  UNL1        0.1512
     15 C          63.1057   89.4849   14.7212 C.2     1  UNL1        0.4021
     16 O          64.4104   88.8841   14.2890 O.2     1  UNL1       -0.2264
     17 N          62.2685   90.2471   13.7373 N.am    1  UNL1       -0.2640
     18 H          61.4121   90.6415   14.0210 H       1  UNL1        0.1532
     19 C          63.0443   88.1153   16.9281 C.3     1  UNL1        0.2573
     20 O          62.6381   89.3234   16.1373 O.3     1  UNL1       -0.4306
     21 C          63.9517   91.2348   12.0224 C.3     1  UNL1        0.0270
     22 C          64.8649   91.6554   13.1356 C.3     1  UNL1        0.0022
     23 C          64.2543   91.6406   10.6103 C.3     1  UNL1        0.0022
     24 C          59.7498   90.3194    5.8737 C.ar    1  UNL1        0.0172
     25 C          58.4698   90.9980    5.4851 C.ar    1  UNL1        0.0015
     26 C          58.4602   91.9968    4.3661 C.ar    1  UNL1        0.0000
     27 C          59.7306   92.3171    3.6358 C.ar    1  UNL1        0.0000
     28 C          61.0106   91.6386    4.0243 C.ar    1  UNL1        0.0000
     29 C          61.0202   90.6397    5.1433 C.ar    1  UNL1        0.0015
     30 C          59.7209   93.3161    2.5168 C.ar    1  UNL1       -0.0000
     31 C          59.1729   92.9329    1.1741 C.ar    1  UNL1       -0.0002
     32 C          59.1632   93.9319    0.0551 C.ar    1  UNL1       -0.0019
     33 C          59.7016   95.3139    0.2788 C.ar    1  UNL1        0.0070
     34 C          60.2497   95.6970    1.6216 C.ar    1  UNL1       -0.0019
     35 C          60.2593   94.6981    2.7405 C.ar    1  UNL1       -0.0002
     36 C          59.6920   96.3128   -0.8401 C.3     1  UNL1        0.1636
     37 O          59.0134   95.9808   -2.1360 O.3     1  UNL1       -0.3772
     38 H          59.4857   95.2540   -2.5713 H       1  UNL1        0.2109
@<TRIPOS>BOND
     1    19    20    1
     2    20    15    1
     3    15    16    2
     4    15    17   am
     5    14    17    1
     6    14     7    1
     7     7     8    2
     8     7     9   am
     9     9    10    1
    10    10    11    1
    11    11    12    1
    12    12    13    1
    13    13     1    1
    14     1     2   ar
    15     2     3   ar
    16     3     4   ar
    17     4    24    1
    18    24    25   ar
    19    25    26   ar
    20    26    27   ar
    21    27    30    1
    22    30    31   ar
    23    31    32   ar
    24    32    33   ar
    25    33    36    1
    26    36    37    1
    27    33    34   ar
    28    34    35   ar
    29    27    28   ar
    30    28    29   ar
    31     4     5   ar
    32    14    21    1
    33    21    22    1
    34    21    23    1
    35    13     9    1
    36     5     1   ar
    37    29    24   ar
    38    35    30   ar
    39    17    18    1
    40    37    38    1
    41     5     6    1
@<TRIPOS>MOLECULE
*****
 38 41 0 0 0
SMALL
GASTEIGER

@<TRIPOS>ATOM
      1 C          72.2133   74.7127   16.0992 C.ar    1  UNL1        0.1353
      2 N          73.3726   75.5196   16.6044 N.ar    1  UNL1       -0.2279
      3 C          73.6318   76.6236   15.6226 C.ar    1  UNL1        0.1171
      4 C          72.6329   76.4990   14.5106 C.ar    1  UNL1        0.0769
      5 N          71.7562   75.3180   14.8052 N.ar    1  UNL1       -0.3394
      6 H          71.0115   74.9967   14.2472 H       1  UNL1        0.1671
      7 C          71.6647   71.8127   14.7071 C.2     1  UNL1        0.2439
      8 O          72.2743   72.8265   13.7848 O.2     1  UNL1       -0.2731
      9 N          71.3640   72.1785   16.1303 N.am    1  UNL1       -0.2730
     10 C          70.7583   71.2754   17.1636 C.3     1  UNL1        0.0939
     11 C          70.6361   72.0504   18.4421 C.3     1  UNL1        0.0237
     12 C          71.1663   73.4323   18.1990 C.3     1  UNL1        0.0293
     13 C          71.6161   73.5114   16.7703 C.3     1  UNL1        0.1319
     14 C          71.3559   70.4329   14.2060 C.3     1  UNL1        0.1512
     15 C          70.2525   70.3614   11.8550 C.2     1  UNL1        0.4021
     16 O          71.5582   70.7548   11.2302 O.2     1  UNL1       -0.2264
     17 N          70.1514   70.2005   13.3429 N.am    1  UNL1       -0.2640
     18 H          69.2944   69.9423   13.7530 H       1  UNL1        0.1532
     19 C          67.7655   69.6520   11.6069 C.3     1  UNL1        0.2573
     20 O          69.0479   70.1290   10.9920 O.3     1  UNL1       -0.4306
     21 C          72.2517   69.2856   14.5682 C.3     1  UNL1        0.0270
     22 C          71.9899   68.4942   15.8152 C.3     1  UNL1        0.0022
     23 C          73.4095   68.9296   13.6833 C.3     1  UNL1        0.0022
     24 C          72.5288   77.3977   13.3141 C.ar    1  UNL1        0.0172
     25 C          72.9366   76.8951   11.9609 C.ar    1  UNL1        0.0015
     26 C          72.8325   77.7937   10.7644 C.ar    1  UNL1        0.0000
     27 C          72.3206   79.1950   10.9211 C.ar    1  UNL1        0.0000
     28 C          71.9128   79.6975   12.2743 C.ar    1  UNL1        0.0000
     29 C          72.0169   78.7989   13.4707 C.ar    1  UNL1        0.0015
     30 C          72.2166   80.0936    9.7246 C.ar    1  UNL1       -0.0000
     31 C          72.1532   79.5038    8.3469 C.ar    1  UNL1       -0.0002
     32 C          72.0491   80.4025    7.1503 C.ar    1  UNL1       -0.0019
     33 C          72.0084   81.8909    7.3316 C.ar    1  UNL1        0.0070
     34 C          72.0718   82.4807    8.7094 C.ar    1  UNL1       -0.0019
     35 C          72.1758   81.5821    9.9058 C.ar    1  UNL1       -0.0002
     36 C          71.9044   82.7896    6.1351 C.3     1  UNL1        0.1636
     37 O          72.0312   82.2176    4.7543 O.3     1  UNL1       -0.3772
     38 H          72.9314   81.8797    4.6257 H       1  UNL1        0.2109
@<TRIPOS>BOND
     1    19    20    1
     2    20    15    1
     3    15    16    2
     4    15    17   am
     5    14    17    1
     6    14     7    1
     7     7     8    2
     8     7     9   am
     9     9    10    1
    10    10    11    1
    11    11    12    1
    12    12    13    1
    13    13     1    1
    14     1     2   ar
    15     2     3   ar
    16     3     4   ar
    17     4    24    1
    18    24    25   ar
    19    25    26   ar
    20    26    27   ar
    21    27    30    1
    22    30    31   ar
    23    31    32   ar
    24    32    33   ar
    25    33    36    1
    26    36    37    1
    27    33    34   ar
    28    34    35   ar
    29    27    28   ar
    30    28    29   ar
    31     4     5   ar
    32    14    21    1
    33    21    22    1
    34    21    23    1
    35    13     9    1
    36     5     1   ar
    37    29    24   ar
    38    35    30   ar
    39    17    18    1
    40    37    38    1
    41     5     6    1
