@<TRIPOS>MOLECULE
*****
 32 35 0 0 0
SMALL
GASTEIGER

@<TRIPOS>ATOM
      1 C          63.1558   86.4186   12.7113 C.3     1  UNL1        0.1356
      2 C          63.9042   87.3678   13.5995 C.3     1  UNL1        0.0241
      3 C          63.9336   88.8322   13.2764 C.3     1  UNL1        0.0034
      4 C          63.2144   89.3476   12.0651 C.3     1  UNL1        0.0182
      5 C          62.4660   88.3984   11.1769 C.3     1  UNL1        0.0034
      6 C          62.4367   86.9340   11.5000 C.3     1  UNL1        0.0241
      7 S          63.1265   84.9541   13.0344 S.O2    1  UNL1        0.0266
      8 O          63.1669   85.2763   14.4988 O.2     1  UNL1       -0.1671
      9 O          63.0861   84.6319   11.5700 O.2     1  UNL1       -0.1671
     10 C          62.5424   79.7249   12.5927 C.3     1  UNL1        0.1556
     11 N          62.8287   81.0860   13.1544 N.ar    1  UNL1       -0.2268
     12 C          62.7185   82.3861   12.4145 C.ar    1  UNL1        0.1364
     13 C          63.0972   83.4896   13.3574 C.ar    1  UNL1        0.2275
     14 N          63.4413   82.8714   14.6800 N.ar    1  UNL1       -0.1100
     15 N          63.2754   81.3859   14.5546 N.ar    1  UNL1       -0.0625
     16 C          63.7815   90.6304   12.5968 C.3     1  UNL1        0.0896
     17 N          64.2936   91.6740   11.6488 N.am    1  UNL1       -0.3008
     18 C          65.5926   92.3696   11.9294 C.2     1  UNL1        0.2467
     19 O          66.3796   92.0216   13.1581 O.2     1  UNL1       -0.2701
     20 H          63.7772   91.9024   10.8424 H       1  UNL1        0.1497
     21 C          66.1047   93.4131   10.9814 C.ar    1  UNL1        0.0640
     22 C          65.4512   94.7623   10.9268 C.ar    1  UNL1        0.0062
     23 C          65.9633   95.8058    9.9788 C.ar    1  UNL1        0.0116
     24 C          67.1288   95.5003    9.0853 C.ar    1  UNL1        0.0585
     25 CL         67.6408   96.5438    8.1373 Cl      1  UNL1       -0.0822
     26 C          67.7822   94.1511    9.1399 C.ar    1  UNL1        0.0229
     27 C          67.2701   93.1076   10.0879 C.ar    1  UNL1        0.0629
     28 CL         67.9236   91.7585   10.1425 Cl      1  UNL1       -0.0821
     29 C          62.6923   90.3085   11.0385 C.3     1  UNL1        0.0016
     30 C          61.2284   90.3357   10.7125 C.3     1  UNL1        0.0001
     31 C          59.8086   90.5771   11.1315 C.3     1  UNL1        0.0000
     32 C          60.1128   90.1414    9.7288 C.3     1  UNL1        0.0000
@<TRIPOS>BOND
     1    10    11    1
     2    11    12   ar
     3    12    13   ar
     4    13     7    1
     5     7     8    2
     6     7     9    2
     7     1     7    1
     8     1     2    1
     9     2     3    1
    10     3     4    1
    11     4    16    1
    12    16    17    1
    13    17    18   am
    14    18    19    2
    15    18    21    1
    16    21    22   ar
    17    22    23   ar
    18    23    24   ar
    19    24    25    1
    20    24    26   ar
    21    26    27   ar
    22    27    28    1
    23     4    29    1
    24    29    30    1
    25    30    31    1
    26    31    32    1
    27     4     5    1
    28     5     6    1
    29    13    14   ar
    30    14    15   ar
    31    15    11   ar
    32     6     1    1
    33    27    21   ar
    34    32    30    1
    35    17    20    1
@<TRIPOS>MOLECULE
*****
 32 35 0 0 0
SMALL
GASTEIGER

@<TRIPOS>ATOM
      1 C          62.1831   86.2212   11.4157 C.3     1  UNL1        0.1356
      2 C          62.9628   87.4299   11.8411 C.3     1  UNL1        0.0241
      3 C          62.5043   88.7992   11.4353 C.3     1  UNL1        0.0034
      4 C          61.2660   88.9598   10.6041 C.3     1  UNL1        0.0182
      5 C          60.4862   87.7511   10.1787 C.3     1  UNL1        0.0034
      6 C          60.9448   86.3818   10.5845 C.3     1  UNL1        0.0241
      7 S          62.6416   84.8518   11.8215 S.O2    1  UNL1        0.0266
      8 O          62.3017   85.1610   13.2493 O.2     1  UNL1       -0.1671
      9 O          62.9815   84.5425   10.3936 O.2     1  UNL1       -0.1671
     10 C          62.6617   79.9039   13.6650 C.3     1  UNL1        0.1556
     11 N          63.1093   81.2081   13.0746 N.ar    1  UNL1       -0.2268
     12 C          62.2429   82.4072   12.8266 C.ar    1  UNL1        0.1364
     13 C          63.1001   83.4825   12.2272 C.ar    1  UNL1        0.2275
     14 N          64.4962   82.9479   12.1048 N.ar    1  UNL1       -0.1100
     15 N          64.5020   81.5423   12.6285 N.ar    1  UNL1       -0.0625
     16 C          61.6637   90.3977   10.7596 C.3     1  UNL1        0.0896
     17 N          62.5790   90.8064   11.8754 N.am    1  UNL1       -0.3008
     18 C          63.8789   91.4886   11.5676 C.2     1  UNL1        0.2467
     19 O          64.2635   91.7623   10.1438 O.2     1  UNL1       -0.2701
     20 H          62.3266   90.6268   12.8099 H       1  UNL1        0.1497
     21 C          64.7942   91.8972   12.6835 C.ar    1  UNL1        0.0640
     22 C          64.8092   91.1176   13.9649 C.ar    1  UNL1        0.0062
     23 C          65.7245   91.5262   15.0807 C.ar    1  UNL1        0.0116
     24 C          66.6248   92.7145   14.9153 C.ar    1  UNL1        0.0585
     25 CL         67.5401   93.1231   16.0312 Cl      1  UNL1       -0.0822
     26 C          66.6099   93.4942   13.6339 C.ar    1  UNL1        0.0229
     27 C          65.6945   93.0855   12.5180 C.ar    1  UNL1        0.0629
     28 CL         65.6796   93.8652   11.2366 Cl      1  UNL1       -0.0821
     29 C          60.1659   89.6199    9.8269 C.3     1  UNL1        0.0016
     30 C          59.8114   89.1212    8.4574 C.3     1  UNL1        0.0001
     31 C          59.3303   88.0195    7.5604 C.3     1  UNL1        0.0000
     32 C          59.6786   89.3591    6.9824 C.3     1  UNL1        0.0000
@<TRIPOS>BOND
     1    10    11    1
     2    11    12   ar
     3    12    13   ar
     4    13     7    1
     5     7     8    2
     6     7     9    2
     7     1     7    1
     8     1     2    1
     9     2     3    1
    10     3     4    1
    11     4    16    1
    12    16    17    1
    13    17    18   am
    14    18    19    2
    15    18    21    1
    16    21    22   ar
    17    22    23   ar
    18    23    24   ar
    19    24    25    1
    20    24    26   ar
    21    26    27   ar
    22    27    28    1
    23     4    29    1
    24    29    30    1
    25    30    31    1
    26    31    32    1
    27     4     5    1
    28     5     6    1
    29    13    14   ar
    30    14    15   ar
    31    15    11   ar
    32     6     1    1
    33    27    21   ar
    34    32    30    1
    35    17    20    1
@<TRIPOS>MOLECULE
*****
 32 35 0 0 0
SMALL
GASTEIGER

@<TRIPOS>ATOM
      1 C          63.3546   90.4797   11.8040 C.3     1  UNL1        0.1356
      2 C          62.8886   89.1579   12.3384 C.3     1  UNL1        0.0241
      3 C          61.8289   88.3859   11.6098 C.3     1  UNL1        0.0034
      4 C          61.2353   88.9356   10.3467 C.3     1  UNL1        0.0182
      5 C          61.7013   90.2574    9.8123 C.3     1  UNL1        0.0034
      6 C          62.7610   91.0294   10.5409 C.3     1  UNL1        0.0241
      7 S          64.4144   91.2518   12.5326 S.O2    1  UNL1        0.0266
      8 O          64.6939   92.0422   11.2888 O.2     1  UNL1       -0.1671
      9 O          64.1349   90.4615   13.7765 O.2     1  UNL1       -0.1671
     10 C          68.2489   92.5436   15.9251 C.3     1  UNL1        0.1556
     11 N          67.2366   92.6176   14.8206 N.ar    1  UNL1       -0.2268
     12 C          66.3103   91.5160   14.3983 C.ar    1  UNL1        0.1364
     13 C          65.4741   92.0239   13.2613 C.ar    1  UNL1        0.2275
     14 N          65.8836   93.4394   12.9808 N.ar    1  UNL1       -0.1100
     15 N          66.9729   93.8063   13.9445 N.ar    1  UNL1       -0.0625
     16 C          60.4709   87.6496   10.4556 C.3     1  UNL1        0.0896
     17 N          61.0149   86.5212   11.2807 N.am    1  UNL1       -0.3008
     18 C          62.1228   85.6649   10.7428 C.2     1  UNL1        0.2467
     19 O          62.6867   85.9371    9.3797 O.2     1  UNL1       -0.2701
     20 H          60.6448   86.3426   12.1753 H       1  UNL1        0.1497
     21 C          62.6667   84.5366   11.5680 C.ar    1  UNL1        0.0640
     22 C          62.3669   84.4686   13.0361 C.ar    1  UNL1        0.0062
     23 C          62.9109   83.3403   13.8612 C.ar    1  UNL1        0.0116
     24 C          63.7547   82.2798   13.2182 C.ar    1  UNL1        0.0585
     25 CL         64.2986   81.1515   14.0434 Cl      1  UNL1       -0.0822
     26 C          64.0546   82.3478   11.7501 C.ar    1  UNL1        0.0229
     27 C          63.5106   83.4762   10.9250 C.ar    1  UNL1        0.0629
     28 CL         63.8104   83.5441    9.4568 Cl      1  UNL1       -0.0821
     29 C          60.3761   89.0387    9.1215 C.3     1  UNL1        0.0016
     30 C          59.9367   87.7953    8.4068 C.3     1  UNL1        0.0001
     31 C          60.2729   86.5386    7.6600 C.3     1  UNL1        0.0000
     32 C          58.8393   86.8984    7.9156 C.3     1  UNL1        0.0000
@<TRIPOS>BOND
     1    10    11    1
     2    11    12   ar
     3    12    13   ar
     4    13     7    1
     5     7     8    2
     6     7     9    2
     7     1     7    1
     8     1     2    1
     9     2     3    1
    10     3     4    1
    11     4    16    1
    12    16    17    1
    13    17    18   am
    14    18    19    2
    15    18    21    1
    16    21    22   ar
    17    22    23   ar
    18    23    24   ar
    19    24    25    1
    20    24    26   ar
    21    26    27   ar
    22    27    28    1
    23     4    29    1
    24    29    30    1
    25    30    31    1
    26    31    32    1
    27     4     5    1
    28     5     6    1
    29    13    14   ar
    30    14    15   ar
    31    15    11   ar
    32     6     1    1
    33    27    21   ar
    34    32    30    1
    35    17    20    1
@<TRIPOS>MOLECULE
*****
 32 35 0 0 0
SMALL
GASTEIGER

@<TRIPOS>ATOM
      1 C          62.6869   87.0935   11.3561 C.3     1  UNL1        0.1356
      2 C          62.7772   88.5753   11.5709 C.3     1  UNL1        0.0241
      3 C          63.3594   89.1144   12.8439 C.3     1  UNL1        0.0034
      4 C          63.8512   88.1718   13.9020 C.3     1  UNL1        0.0182
      5 C          63.7608   86.6900   13.6871 C.3     1  UNL1        0.0034
      6 C          63.1787   86.1509   12.4142 C.3     1  UNL1        0.0241
      7 S          62.1047   86.5543   10.0831 S.O2    1  UNL1        0.0266
      8 O          61.3206   87.8206    9.9053 O.2     1  UNL1       -0.1671
      9 O          62.8888   85.2881   10.2609 O.2     1  UNL1       -0.1671
     10 C          61.6042   84.1071    5.4311 C.3     1  UNL1        0.1556
     11 N          61.2925   84.8902    6.6719 N.ar    1  UNL1       -0.2268
     12 C          62.2576   85.2207    7.7716 C.ar    1  UNL1        0.1364
     13 C          61.5226   86.0151    8.8102 C.ar    1  UNL1        0.2275
     14 N          60.1032   86.1756    8.3524 N.ar    1  UNL1       -0.1100
     15 N          59.9610   85.4804    7.0309 N.ar    1  UNL1       -0.0625
     16 C          64.1481   89.4845   14.5641 C.3     1  UNL1        0.0896
     17 N          64.3109   90.7234   13.7343 N.am    1  UNL1       -0.3008
     18 C          65.6485   91.3963   13.6454 C.2     1  UNL1        0.2467
     19 O          66.8235   90.8303   14.3864 O.2     1  UNL1       -0.2701
     20 H          63.5397   91.0949   13.2479 H       1  UNL1        0.1497
     21 C          65.8112   92.6351   12.8155 C.ar    1  UNL1        0.0640
     22 C          65.3744   92.6393   11.3805 C.ar    1  UNL1        0.0062
     23 C          65.5371   93.8782   10.5506 C.ar    1  UNL1        0.0116
     24 C          66.1366   95.1129   11.1557 C.ar    1  UNL1        0.0585
     25 CL         66.2993   96.3517   10.3258 Cl      1  UNL1       -0.0822
     26 C          66.5734   95.1087   12.5907 C.ar    1  UNL1        0.0229
     27 C          66.4107   93.8698   13.4205 C.ar    1  UNL1        0.0629
     28 CL         66.8476   93.8656   14.8555 Cl      1  UNL1       -0.0821
     29 C          64.4461   87.6852   15.1901 C.3     1  UNL1        0.0016
     30 C          63.5523   87.2079   16.2961 C.3     1  UNL1        0.0001
     31 C          62.7494   87.4910   17.5311 C.3     1  UNL1        0.0000
     32 C          62.8071   86.0983   16.9768 C.3     1  UNL1        0.0000
@<TRIPOS>BOND
     1    10    11    1
     2    11    12   ar
     3    12    13   ar
     4    13     7    1
     5     7     8    2
     6     7     9    2
     7     1     7    1
     8     1     2    1
     9     2     3    1
    10     3     4    1
    11     4    16    1
    12    16    17    1
    13    17    18   am
    14    18    19    2
    15    18    21    1
    16    21    22   ar
    17    22    23   ar
    18    23    24   ar
    19    24    25    1
    20    24    26   ar
    21    26    27   ar
    22    27    28    1
    23     4    29    1
    24    29    30    1
    25    30    31    1
    26    31    32    1
    27     4     5    1
    28     5     6    1
    29    13    14   ar
    30    14    15   ar
    31    15    11   ar
    32     6     1    1
    33    27    21   ar
    34    32    30    1
    35    17    20    1
@<TRIPOS>MOLECULE
*****
 32 35 0 0 0
SMALL
GASTEIGER

@<TRIPOS>ATOM
      1 C          62.5665   85.9878   12.2207 C.3     1  UNL1        0.1356
      2 C          63.4692   87.0846   12.7024 C.3     1  UNL1        0.0241
      3 C          63.2198   88.5017   12.2785 C.3     1  UNL1        0.0034
      4 C          62.0678   88.8219   11.3729 C.3     1  UNL1        0.0182
      5 C          61.1651   87.7251   10.8911 C.3     1  UNL1        0.0034
      6 C          61.4145   86.3080   11.3150 C.3     1  UNL1        0.0241
      7 S          62.8159   84.5707   12.6446 S.O2    1  UNL1        0.0266
      8 O          62.4466   84.9272   14.0540 O.2     1  UNL1       -0.1671
      9 O          63.1852   84.2141   11.2352 O.2     1  UNL1       -0.1671
     10 C          62.4171   79.3270   13.1196 C.3     1  UNL1        0.1556
     11 N          62.8820   80.7433   13.2868 N.ar    1  UNL1       -0.2268
     12 C          62.2944   81.9492   12.6155 C.ar    1  UNL1        0.1364
     13 C          63.0653   83.1536   13.0684 C.ar    1  UNL1        0.2275
     14 N          64.1293   82.6921   14.0196 N.ar    1  UNL1       -0.1100
     15 N          64.0161   81.2025   14.1546 N.ar    1  UNL1       -0.0625
     16 C          62.6393   90.1956   11.5630 C.3     1  UNL1        0.0896
     17 N          63.7338   90.4208   12.5636 N.am    1  UNL1       -0.3008
     18 C          64.6819   91.5705   12.3923 C.2     1  UNL1        0.2467
     19 O          64.5353   92.4952   11.2203 O.2     1  UNL1       -0.2701
     20 H          63.8300   89.8139   13.3328 H       1  UNL1        0.1497
     21 C          65.7764   91.7956   13.3929 C.ar    1  UNL1        0.0640
     22 C          67.1693   92.0982   12.9256 C.ar    1  UNL1        0.0062
     23 C          68.2637   92.3232   13.9263 C.ar    1  UNL1        0.0116
     24 C          67.9655   92.2457   15.3943 C.ar    1  UNL1        0.0585
     25 CL         69.0600   92.4708   16.3950 Cl      1  UNL1       -0.0822
     26 C          66.5726   91.9431   15.8617 C.ar    1  UNL1        0.0229
     27 C          65.4781   91.7180   14.8609 C.ar    1  UNL1        0.0629
     28 CL         64.0852   91.4154   15.3283 Cl      1  UNL1       -0.0821
     29 C          61.1142   89.6193   10.5333 C.3     1  UNL1        0.0016
     30 C          59.8761   90.1994   11.1502 C.3     1  UNL1        0.0001
     31 C          58.6241   90.0270   11.9580 C.3     1  UNL1        0.0000
     32 C          58.9838   91.3765   11.4110 C.3     1  UNL1        0.0000
@<TRIPOS>BOND
     1    10    11    1
     2    11    12   ar
     3    12    13   ar
     4    13     7    1
     5     7     8    2
     6     7     9    2
     7     1     7    1
     8     1     2    1
     9     2     3    1
    10     3     4    1
    11     4    16    1
    12    16    17    1
    13    17    18   am
    14    18    19    2
    15    18    21    1
    16    21    22   ar
    17    22    23   ar
    18    23    24   ar
    19    24    25    1
    20    24    26   ar
    21    26    27   ar
    22    27    28    1
    23     4    29    1
    24    29    30    1
    25    30    31    1
    26    31    32    1
    27     4     5    1
    28     5     6    1
    29    13    14   ar
    30    14    15   ar
    31    15    11   ar
    32     6     1    1
    33    27    21   ar
    34    32    30    1
    35    17    20    1
@<TRIPOS>MOLECULE
*****
 32 35 0 0 0
SMALL
GASTEIGER

@<TRIPOS>ATOM
      1 C          63.2311   89.4299   12.2588 C.3     1  UNL1        0.1356
      2 C          62.7235   88.0531   12.5695 C.3     1  UNL1        0.0241
      3 C          62.1132   87.2162   11.4846 C.3     1  UNL1        0.0034
      4 C          62.0104   87.7562   10.0889 C.3     1  UNL1        0.0182
      5 C          62.5179   89.1331    9.7782 C.3     1  UNL1        0.0034
      6 C          63.1283   89.9699   10.8631 C.3     1  UNL1        0.0241
      7 S          63.8415   90.2669   13.3437 S.O2    1  UNL1        0.0266
      8 O          63.3860   89.2707   14.3685 O.2     1  UNL1       -0.1671
      9 O          64.2970   91.2630   12.3190 O.2     1  UNL1       -0.1671
     10 C          67.3190   93.0306   16.1983 C.3     1  UNL1        0.1556
     11 N          66.0504   92.3742   15.7407 N.ar    1  UNL1       -0.2268
     12 C          65.8772   91.5674   14.4881 C.ar    1  UNL1        0.1364
     13 C          64.4519   91.1038   14.4286 C.ar    1  UNL1        0.2275
     14 N          63.7441   91.6241   15.6444 N.ar    1  UNL1       -0.1100
     15 N          64.7320   92.4092   16.4554 N.ar    1  UNL1       -0.0625
     16 C          61.3926   86.4037    9.8911 C.3     1  UNL1        0.0896
     17 N          61.6483   85.3097   10.8849 N.am    1  UNL1       -0.3008
     18 C          62.7566   84.3267   10.6499 C.2     1  UNL1        0.2467
     19 O          63.6095   84.4378    9.4208 O.2     1  UNL1       -0.2701
     20 H          61.0885   85.2368   11.6916 H       1  UNL1        0.1497
     21 C          63.0122   83.2328   11.6437 C.ar    1  UNL1        0.0640
     22 C          62.6851   81.8110   11.2948 C.ar    1  UNL1        0.0062
     23 C          62.9407   80.7171   12.2887 C.ar    1  UNL1        0.0116
     24 C          63.5234   81.0447   13.6315 C.ar    1  UNL1        0.0585
     25 CL         63.7790   79.9507   14.6254 Cl      1  UNL1       -0.0822
     26 C          63.8506   82.4665   13.9804 C.ar    1  UNL1        0.0229
     27 C          63.5950   83.5604   12.9865 C.ar    1  UNL1        0.0629
     28 CL         63.9221   84.9822   13.3353 Cl      1  UNL1       -0.0821
     29 C          61.6930   87.8264    8.6246 C.3     1  UNL1        0.0016
     30 C          60.2877   88.0947    8.1737 C.3     1  UNL1        0.0001
     31 C          59.1993   89.0648    7.8216 C.3     1  UNL1        0.0000
     32 C          58.9423   87.5890    7.7448 C.3     1  UNL1        0.0000
@<TRIPOS>BOND
     1    10    11    1
     2    11    12   ar
     3    12    13   ar
     4    13     7    1
     5     7     8    2
     6     7     9    2
     7     1     7    1
     8     1     2    1
     9     2     3    1
    10     3     4    1
    11     4    16    1
    12    16    17    1
    13    17    18   am
    14    18    19    2
    15    18    21    1
    16    21    22   ar
    17    22    23   ar
    18    23    24   ar
    19    24    25    1
    20    24    26   ar
    21    26    27   ar
    22    27    28    1
    23     4    29    1
    24    29    30    1
    25    30    31    1
    26    31    32    1
    27     4     5    1
    28     5     6    1
    29    13    14   ar
    30    14    15   ar
    31    15    11   ar
    32     6     1    1
    33    27    21   ar
    34    32    30    1
    35    17    20    1
@<TRIPOS>MOLECULE
*****
 32 35 0 0 0
SMALL
GASTEIGER

@<TRIPOS>ATOM
      1 C          63.8103   87.3406   13.7585 C.3     1  UNL1        0.1356
      2 C          63.5060   88.3184   12.6626 C.3     1  UNL1        0.0241
      3 C          63.6715   89.7897   12.9029 C.3     1  UNL1        0.0034
      4 C          64.1413   90.2832   14.2392 C.3     1  UNL1        0.0182
      5 C          64.4455   89.3054   15.3352 C.3     1  UNL1        0.0034
      6 C          64.2800   87.8341   15.0949 C.3     1  UNL1        0.0241
      7 S          63.6447   85.8692   13.5182 S.O2    1  UNL1        0.0266
      8 O          62.7677   86.1608   12.3368 O.2     1  UNL1       -0.1671
      9 O          64.5218   85.5776   14.6997 O.2     1  UNL1       -0.1671
     10 C          61.8831   80.9001   13.8103 C.3     1  UNL1        0.1556
     11 N          62.6695   82.1138   13.4122 N.ar    1  UNL1       -0.2268
     12 C          62.4839   83.5009   13.9522 C.ar    1  UNL1        0.1364
     13 C          63.4793   84.3979   13.2780 C.ar    1  UNL1        0.2275
     14 N          64.2802   83.5652   12.3213 N.ar    1  UNL1       -0.1100
     15 N          63.7797   82.1536   12.4043 N.ar    1  UNL1       -0.0625
     16 C          63.9808   91.5901   13.5206 C.3     1  UNL1        0.0896
     17 N          64.7512   91.8528   12.2607 N.am    1  UNL1       -0.3008
     18 C          65.6524   93.0483   12.1680 C.2     1  UNL1        0.2467
     19 O          65.7832   93.9812   13.3353 O.2     1  UNL1       -0.2701
     20 H          64.6654   91.2405   11.4945 H       1  UNL1        0.1497
     21 C          66.4227   93.3110   10.9080 C.ar    1  UNL1        0.0640
     22 C          67.3828   92.2826   10.3877 C.ar    1  UNL1        0.0062
     23 C          68.1531   92.5453    9.1277 C.ar    1  UNL1        0.0116
     24 C          67.9633   93.8363    8.3880 C.ar    1  UNL1        0.0585
     25 CL         68.7336   94.0990    7.1280 Cl      1  UNL1       -0.0822
     26 C          67.0032   94.8647    8.9083 C.ar    1  UNL1        0.0229
     27 C          66.2329   94.6020   10.1683 C.ar    1  UNL1        0.0629
     28 CL         65.2728   95.6304   10.6886 Cl      1  UNL1       -0.0821
     29 C          64.5553   91.2306   15.3260 C.3     1  UNL1        0.0016
     30 C          65.9913   91.6449   15.4530 C.3     1  UNL1        0.0001
     31 C          67.0471   92.4893   16.1028 C.3     1  UNL1        0.0000
     32 C          67.4228   91.5181   15.0233 C.3     1  UNL1        0.0000
@<TRIPOS>BOND
     1    10    11    1
     2    11    12   ar
     3    12    13   ar
     4    13     7    1
     5     7     8    2
     6     7     9    2
     7     1     7    1
     8     1     2    1
     9     2     3    1
    10     3     4    1
    11     4    16    1
    12    16    17    1
    13    17    18   am
    14    18    19    2
    15    18    21    1
    16    21    22   ar
    17    22    23   ar
    18    23    24   ar
    19    24    25    1
    20    24    26   ar
    21    26    27   ar
    22    27    28    1
    23     4    29    1
    24    29    30    1
    25    30    31    1
    26    31    32    1
    27     4     5    1
    28     5     6    1
    29    13    14   ar
    30    14    15   ar
    31    15    11   ar
    32     6     1    1
    33    27    21   ar
    34    32    30    1
    35    17    20    1
@<TRIPOS>MOLECULE
*****
 32 35 0 0 0
SMALL
GASTEIGER

@<TRIPOS>ATOM
      1 C          62.1790   86.1783   11.2279 C.3     1  UNL1        0.1356
      2 C          63.0079   87.3944   11.5175 C.3     1  UNL1        0.0241
      3 C          62.5411   88.7457   11.0635 C.3     1  UNL1        0.0034
      4 C          61.2454   88.8808   10.3199 C.3     1  UNL1        0.0182
      5 C          60.4165   87.6647   10.0303 C.3     1  UNL1        0.0034
      6 C          60.8833   86.3134   10.4843 C.3     1  UNL1        0.0241
      7 S          62.6458   84.8269   11.6820 S.O2    1  UNL1        0.0266
      8 O          62.2264   85.1533   13.0847 O.2     1  UNL1       -0.1671
      9 O          63.0651   84.5005   10.2793 O.2     1  UNL1       -0.1671
     10 C          62.6709   79.8933   13.5633 C.3     1  UNL1        0.1556
     11 N          63.1241   81.2079   13.0007 N.ar    1  UNL1       -0.2268
     12 C          62.2434   82.3767   12.6717 C.ar    1  UNL1        0.1364
     13 C          63.1125   83.4756   12.1359 C.ar    1  UNL1        0.2275
     14 N          64.5303   82.9860   12.1339 N.ar    1  UNL1       -0.1100
     15 N          64.5375   81.5845   12.6683 N.ar    1  UNL1       -0.0625
     16 C          61.6763   90.3171   10.3555 C.3     1  UNL1        0.0896
     17 N          63.0198   90.6835   10.9129 N.am    1  UNL1       -0.3008
     18 C          63.1844   90.9089   12.3868 C.2     1  UNL1        0.2467
     19 O          62.0053   90.7677   13.3033 O.2     1  UNL1       -0.2701
     20 H          63.7937   90.7762   10.3114 H       1  UNL1        0.1497
     21 C          64.5279   91.2753   12.9441 C.ar    1  UNL1        0.0640
     22 C          65.3270   92.3764   12.3123 C.ar    1  UNL1        0.0062
     23 C          66.6705   92.7427   12.8697 C.ar    1  UNL1        0.0116
     24 C          67.2150   92.0081   14.0588 C.ar    1  UNL1        0.0585
     25 CL         68.5585   92.3746   14.6161 Cl      1  UNL1       -0.0822
     26 C          66.4158   90.9071   14.6906 C.ar    1  UNL1        0.0229
     27 C          65.0723   90.5407   14.1332 C.ar    1  UNL1        0.0629
     28 CL         64.2731   89.4396   14.7649 Cl      1  UNL1       -0.0821
     29 C          60.0994   89.5148    9.5887 C.3     1  UNL1        0.0016
     30 C          59.7413   89.0500    8.2082 C.3     1  UNL1        0.0001
     31 C          59.3528   87.9470    7.2689 C.3     1  UNL1        0.0000
     32 C          59.5095   89.3480    6.7565 C.3     1  UNL1        0.0000
@<TRIPOS>BOND
     1    10    11    1
     2    11    12   ar
     3    12    13   ar
     4    13     7    1
     5     7     8    2
     6     7     9    2
     7     1     7    1
     8     1     2    1
     9     2     3    1
    10     3     4    1
    11     4    16    1
    12    16    17    1
    13    17    18   am
    14    18    19    2
    15    18    21    1
    16    21    22   ar
    17    22    23   ar
    18    23    24   ar
    19    24    25    1
    20    24    26   ar
    21    26    27   ar
    22    27    28    1
    23     4    29    1
    24    29    30    1
    25    30    31    1
    26    31    32    1
    27     4     5    1
    28     5     6    1
    29    13    14   ar
    30    14    15   ar
    31    15    11   ar
    32     6     1    1
    33    27    21   ar
    34    32    30    1
    35    17    20    1
@<TRIPOS>MOLECULE
*****
 32 35 0 0 0
SMALL
GASTEIGER

@<TRIPOS>ATOM
      1 C          63.8542   87.1588   13.7121 C.3     1  UNL1        0.1356
      2 C          63.1202   87.8945   12.6305 C.3     1  UNL1        0.0241
      3 C          63.1913   89.3911   12.5602 C.3     1  UNL1        0.0034
      4 C          63.9963   90.1521   13.5715 C.3     1  UNL1        0.0182
      5 C          64.7303   89.4164   14.6532 C.3     1  UNL1        0.0034
      6 C          64.6593   87.9198   14.7235 C.3     1  UNL1        0.0241
      7 S          63.7832   85.6621   13.7825 S.O2    1  UNL1        0.0266
      8 O          64.8907   85.6571   14.7940 O.2     1  UNL1       -0.1671
      9 O          62.6756   85.6672   12.7710 O.2     1  UNL1       -0.1671
     10 C          62.8614   80.6144   12.5369 C.3     1  UNL1        0.1556
     11 N          63.2884   81.8453   13.2803 N.ar    1  UNL1       -0.2268
     12 C          63.1617   83.2581   12.7927 C.ar    1  UNL1        0.1364
     13 C          63.7121   84.1655   13.8528 C.ar    1  UNL1        0.2275
     14 N          64.1790   83.3134   14.9956 N.ar    1  UNL1       -0.1100
     15 N          63.9171   81.8794   14.6418 N.ar    1  UNL1       -0.0625
     16 C          63.4796   91.2892   12.7409 C.3     1  UNL1        0.0896
     17 N          64.4207   92.3512   12.2547 N.am    1  UNL1       -0.3008
     18 C          64.5669   92.6078   10.7841 C.2     1  UNL1        0.2467
     19 O          63.7720   91.8023    9.7995 O.2     1  UNL1       -0.2701
     20 H          64.9425   92.8799   12.9008 H       1  UNL1        0.1497
     21 C          65.5081   93.6697   10.2979 C.ar    1  UNL1        0.0640
     22 C          65.0512   95.0961   10.2153 C.ar    1  UNL1        0.0062
     23 C          65.9924   96.1581    9.7292 C.ar    1  UNL1        0.0116
     24 C          67.3905   95.7938    9.3257 C.ar    1  UNL1        0.0585
     25 CL         68.3316   96.8558    8.8396 Cl      1  UNL1       -0.0822
     26 C          67.8473   94.3674    9.4083 C.ar    1  UNL1        0.0229
     27 C          66.9061   93.3054    9.8945 C.ar    1  UNL1        0.0629
     28 CL         67.3629   91.8791    9.9771 Cl      1  UNL1       -0.0821
     29 C          64.6219   91.3080   14.2943 C.3     1  UNL1        0.0016
     30 C          66.1145   91.4526   14.3280 C.3     1  UNL1        0.0001
     31 C          67.4214   91.6051   13.6077 C.3     1  UNL1        0.0000
     32 C          67.3929   91.5505   15.1064 C.3     1  UNL1        0.0000
@<TRIPOS>BOND
     1    10    11    1
     2    11    12   ar
     3    12    13   ar
     4    13     7    1
     5     7     8    2
     6     7     9    2
     7     1     7    1
     8     1     2    1
     9     2     3    1
    10     3     4    1
    11     4    16    1
    12    16    17    1
    13    17    18   am
    14    18    19    2
    15    18    21    1
    16    21    22   ar
    17    22    23   ar
    18    23    24   ar
    19    24    25    1
    20    24    26   ar
    21    26    27   ar
    22    27    28    1
    23     4    29    1
    24    29    30    1
    25    30    31    1
    26    31    32    1
    27     4     5    1
    28     5     6    1
    29    13    14   ar
    30    14    15   ar
    31    15    11   ar
    32     6     1    1
    33    27    21   ar
    34    32    30    1
    35    17    20    1
