@<TRIPOS>MOLECULE
*****
 28 31 0 0 0
SMALL
GASTEIGER

@<TRIPOS>ATOM
      1 C          63.1860   86.9840   16.4123 C.ar    1  UNL1        0.1386
      2 C          62.8530   88.3638   16.8973 C.ar    1  UNL1        0.0369
      3 C          63.4120   89.5627   16.1899 C.ar    1  UNL1        0.0047
      4 C          64.3040   89.3816   14.9976 C.ar    1  UNL1        0.0192
      5 C          64.6371   88.0018   14.5127 C.ar    1  UNL1        0.0047
      6 C          64.0780   86.8030   15.2200 C.ar    1  UNL1        0.0369
      7 C          64.8630   90.5805   14.2903 C.ar    1  UNL1        0.0968
      8 N          65.8864   91.4421   14.9688 N.ar    1  UNL1       -0.1671
      9 N          66.4454   92.6409   14.2615 N.ar    1  UNL1       -0.2149
     10 C          67.4687   93.5025   14.9401 C.3     1  UNL1        0.1571
     11 C          65.9810   92.9781   12.8756 C.ar    1  UNL1        0.2721
     12 O          66.5401   94.1769   12.1683 O.2     1  UNL1       -0.2659
     13 C          64.9577   92.1165   12.1970 C.ar    1  UNL1        0.0329
     14 C          64.3987   90.9177   12.9043 C.ar    1  UNL1       -0.0022
     15 C          63.3754   90.0561   12.2258 C.3     1  UNL1        0.0278
     16 C          62.9110   90.3933   10.8400 C.3     1  UNL1        0.0051
     17 C          63.4700   91.5921   10.1326 C.3     1  UNL1        0.0052
     18 C          64.4934   92.4537   10.8112 C.3     1  UNL1        0.0310
     19 O          62.6270   85.7851   17.1196 O.3     1  UNL1       -0.4754
     20 C          62.8066   84.4166   16.5325 C.3     1  UNL1        0.2068
     21 C          62.0353   84.0182   15.3092 C.3     1  UNL1        0.0646
     22 C          62.3465   82.7258   14.6142 C.3     1  UNL1        0.0759
     23 C          62.5715   80.1376   12.6393 C.3     1  UNL1        0.0173
     24 C          62.9516   81.5467   12.2929 C.3     1  UNL1        0.0576
     25 C          63.5019   82.0135   10.9778 C.3     1  UNL1        0.0174
     26 C          63.7387   83.4916   11.0729 C.3     1  UNL1        0.0187
     27 C          63.3347   83.9385   12.4466 C.3     1  UNL1        0.0721
     28 N          62.8482   82.7363   13.2006 N.3     1  UNL1       -0.2738
@<TRIPOS>BOND
     1    24    23    1
     2    24    25    1
     3    25    26    1
     4    26    27    1
     5    27    28    1
     6    28    22    1
     7    22    21    1
     8    21    20    1
     9    20    19    1
    10    19     1    1
    11     1     2   ar
    12     2     3   ar
    13     3     4   ar
    14     4     7    1
    15     7     8   ar
    16     8     9   ar
    17     9    10    1
    18     9    11   ar
    19    11    12    2
    20    11    13   ar
    21    13    14   ar
    22    14    15    1
    23    15    16    1
    24    16    17    1
    25    17    18    1
    26     4     5   ar
    27     5     6   ar
    28    28    24    1
    29     6     1   ar
    30    14     7   ar
    31    18    13    1
@<TRIPOS>MOLECULE
*****
 28 31 0 0 0
SMALL
GASTEIGER

@<TRIPOS>ATOM
      1 C          63.4320   87.2196   16.5258 C.ar    1  UNL1        0.1386
      2 C          62.9655   88.6202   16.7917 C.ar    1  UNL1        0.0369
      3 C          63.2882   89.7156   15.8190 C.ar    1  UNL1        0.0047
      4 C          64.0772   89.4102   14.5803 C.ar    1  UNL1        0.0192
      5 C          64.5437   88.0096   14.3145 C.ar    1  UNL1        0.0047
      6 C          64.2210   86.9143   15.2872 C.ar    1  UNL1        0.0369
      7 C          64.3999   90.5055   13.6076 C.ar    1  UNL1        0.0968
      8 N          63.7528   90.5216   12.2545 N.ar    1  UNL1       -0.1671
      9 N          64.0754   91.6169   11.2818 N.ar    1  UNL1       -0.2149
     10 C          63.4282   91.6329    9.9286 C.3     1  UNL1        0.1571
     11 C          65.0451   92.6962   11.6622 C.ar    1  UNL1        0.2721
     12 O          65.3677   93.7915   10.6894 O.2     1  UNL1       -0.2659
     13 C          65.6923   92.6802   13.0153 C.ar    1  UNL1        0.0329
     14 C          65.3696   91.5849   13.9881 C.ar    1  UNL1       -0.0022
     15 C          66.0167   91.5688   15.3412 C.3     1  UNL1        0.0278
     16 C          66.9865   92.6481   15.7215 C.3     1  UNL1        0.0051
     17 C          67.3091   93.7434   14.7488 C.3     1  UNL1        0.0052
     18 C          66.6620   93.7595   13.3957 C.3     1  UNL1        0.0310
     19 O          63.1094   86.1243   17.4985 O.3     1  UNL1       -0.4754
     20 C          62.3562   84.9111   17.0392 C.3     1  UNL1        0.2068
     21 C          62.4427   84.4721   15.6075 C.3     1  UNL1        0.0646
     22 C          63.4144   83.4011   15.2089 C.3     1  UNL1        0.0759
     23 C          61.3827   81.1475   14.0078 C.3     1  UNL1        0.0173
     24 C          62.4802   81.8371   13.2528 C.3     1  UNL1        0.0576
     25 C          62.8365   81.6119   11.8133 C.3     1  UNL1        0.0174
     26 C          63.9906   82.5086   11.4756 C.3     1  UNL1        0.0187
     27 C          64.3476   83.2880   12.7065 C.3     1  UNL1        0.0721
     28 N          63.4141   82.8730   13.8049 N.3     1  UNL1       -0.2738
@<TRIPOS>BOND
     1    24    23    1
     2    24    25    1
     3    25    26    1
     4    26    27    1
     5    27    28    1
     6    28    22    1
     7    22    21    1
     8    21    20    1
     9    20    19    1
    10    19     1    1
    11     1     2   ar
    12     2     3   ar
    13     3     4   ar
    14     4     7    1
    15     7     8   ar
    16     8     9   ar
    17     9    10    1
    18     9    11   ar
    19    11    12    2
    20    11    13   ar
    21    13    14   ar
    22    14    15    1
    23    15    16    1
    24    16    17    1
    25    17    18    1
    26     4     5   ar
    27     5     6   ar
    28    28    24    1
    29     6     1   ar
    30    14     7   ar
    31    18    13    1
@<TRIPOS>MOLECULE
*****
 28 31 0 0 0
SMALL
GASTEIGER

@<TRIPOS>ATOM
      1 C          64.6309   91.1679   14.0248 C.ar    1  UNL1        0.1386
      2 C          64.1052   91.7266   12.7357 C.ar    1  UNL1        0.0369
      3 C          63.3495   90.8429   11.7881 C.ar    1  UNL1        0.0047
      4 C          63.1194   89.4005   12.1295 C.ar    1  UNL1        0.0192
      5 C          63.6451   88.8418   13.4185 C.ar    1  UNL1        0.0047
      6 C          64.4008   89.7255   14.3661 C.ar    1  UNL1        0.0369
      7 C          62.3637   88.5168   11.1819 C.ar    1  UNL1        0.0968
      8 N          61.5271   89.1244   10.0953 N.ar    1  UNL1       -0.1671
      9 N          60.7713   88.2408    9.1477 N.ar    1  UNL1       -0.2149
     10 C          59.9346   88.8485    8.0610 C.3     1  UNL1        0.1571
     11 C          60.8522   86.7494    9.2867 C.ar    1  UNL1        0.2721
     12 O          60.0965   85.8657    8.3391 O.2     1  UNL1       -0.2659
     13 C          61.6889   86.1417   10.3733 C.ar    1  UNL1        0.0329
     14 C          62.4447   87.0254   11.3210 C.ar    1  UNL1       -0.0022
     15 C          63.2813   86.4178   12.4076 C.3     1  UNL1        0.0278
     16 C          63.3622   84.9264   12.5465 C.3     1  UNL1        0.0051
     17 C          62.6065   84.0428   11.5989 C.3     1  UNL1        0.0052
     18 C          61.7698   84.6504   10.5123 C.3     1  UNL1        0.0310
     19 O          65.3866   92.0515   14.9724 O.3     1  UNL1       -0.4754
     20 C          66.8390   91.7922   15.2431 C.3     1  UNL1        0.2068
     21 C          67.8818   92.3030   14.2936 C.3     1  UNL1        0.0646
     22 C          67.7897   91.9772   12.8323 C.3     1  UNL1        0.0759
     23 C          68.1718   91.9755    9.5914 C.3     1  UNL1        0.0173
     24 C          67.3872   92.9769   10.3862 C.3     1  UNL1        0.0576
     25 C          66.6406   94.1534    9.8307 C.3     1  UNL1        0.0174
     26 C          66.0035   94.8812   10.9772 C.3     1  UNL1        0.0187
     27 C          66.3563   94.1546   12.2412 C.3     1  UNL1        0.0721
     28 N          67.2116   92.9777   11.8758 N.3     1  UNL1       -0.2738
@<TRIPOS>BOND
     1    24    23    1
     2    24    25    1
     3    25    26    1
     4    26    27    1
     5    27    28    1
     6    28    22    1
     7    22    21    1
     8    21    20    1
     9    20    19    1
    10    19     1    1
    11     1     2   ar
    12     2     3   ar
    13     3     4   ar
    14     4     7    1
    15     7     8   ar
    16     8     9   ar
    17     9    10    1
    18     9    11   ar
    19    11    12    2
    20    11    13   ar
    21    13    14   ar
    22    14    15    1
    23    15    16    1
    24    16    17    1
    25    17    18    1
    26     4     5   ar
    27     5     6   ar
    28    28    24    1
    29     6     1   ar
    30    14     7   ar
    31    18    13    1
@<TRIPOS>MOLECULE
*****
 28 31 0 0 0
SMALL
GASTEIGER

@<TRIPOS>ATOM
      1 C          64.6527   91.3859   13.9752 C.ar    1  UNL1        0.1386
      2 C          63.8629   91.1253   12.7268 C.ar    1  UNL1        0.0369
      3 C          63.4535   89.7254   12.3768 C.ar    1  UNL1        0.0047
      4 C          63.8339   88.5859   13.2752 C.ar    1  UNL1        0.0192
      5 C          64.6238   88.8465   14.5235 C.ar    1  UNL1        0.0047
      6 C          65.0332   90.2465   14.8735 C.ar    1  UNL1        0.0369
      7 C          63.4246   87.1860   12.9253 C.ar    1  UNL1        0.0968
      8 N          63.7806   86.0501   13.8379 N.ar    1  UNL1       -0.1671
      9 N          63.3712   84.6501   13.4880 N.ar    1  UNL1       -0.2149
     10 C          63.7272   83.5143   14.4007 C.3     1  UNL1        0.1571
     11 C          62.6058   84.3860   12.2253 C.ar    1  UNL1        0.2721
     12 O          62.1964   82.9861   11.8753 O.2     1  UNL1       -0.2659
     13 C          62.2497   85.5219   11.3125 C.ar    1  UNL1        0.0329
     14 C          62.6591   86.9219   11.6625 C.ar    1  UNL1       -0.0022
     15 C          62.3031   88.0577   10.7498 C.3     1  UNL1        0.0278
     16 C          61.5377   87.7936    9.4872 C.3     1  UNL1        0.0051
     17 C          61.1283   86.3937    9.1372 C.3     1  UNL1        0.0052
     18 C          61.4843   85.2578   10.0499 C.3     1  UNL1        0.0310
     19 O          65.0621   92.7858   14.3252 O.3     1  UNL1       -0.4754
     20 C          66.4904   93.2131   14.1597 C.3     1  UNL1        0.2068
     21 C          67.3661   92.5287   13.1524 C.3     1  UNL1        0.0646
     22 C          66.9277   92.4302   11.7213 C.3     1  UNL1        0.0759
     23 C          68.6412   92.4852    8.9445 C.3     1  UNL1        0.0173
     24 C          67.8731   93.6331    9.5295 C.3     1  UNL1        0.0576
     25 C          67.7578   95.0080    8.9407 C.3     1  UNL1        0.0174
     26 C          66.8989   95.8324    9.8532 C.3     1  UNL1        0.0187
     27 C          66.4834   94.9671   11.0059 C.3     1  UNL1        0.0721
     28 N          67.0855   93.6079   10.8058 N.3     1  UNL1       -0.2738
@<TRIPOS>BOND
     1    24    23    1
     2    24    25    1
     3    25    26    1
     4    26    27    1
     5    27    28    1
     6    28    22    1
     7    22    21    1
     8    21    20    1
     9    20    19    1
    10    19     1    1
    11     1     2   ar
    12     2     3   ar
    13     3     4   ar
    14     4     7    1
    15     7     8   ar
    16     8     9   ar
    17     9    10    1
    18     9    11   ar
    19    11    12    2
    20    11    13   ar
    21    13    14   ar
    22    14    15    1
    23    15    16    1
    24    16    17    1
    25    17    18    1
    26     4     5   ar
    27     5     6   ar
    28    28    24    1
    29     6     1   ar
    30    14     7   ar
    31    18    13    1
@<TRIPOS>MOLECULE
*****
 28 31 0 0 0
SMALL
GASTEIGER

@<TRIPOS>ATOM
      1 C          60.3704   88.8920    9.5604 C.ar    1  UNL1        0.1386
      2 C          59.7825   89.3647   10.8570 C.ar    1  UNL1        0.0369
      3 C          60.6784   89.8900   11.9393 C.ar    1  UNL1        0.0047
      4 C          62.1622   89.9426   11.7251 C.ar    1  UNL1        0.0192
      5 C          62.7499   89.4699   10.4286 C.ar    1  UNL1        0.0047
      6 C          61.8541   88.9446    9.3462 C.ar    1  UNL1        0.0369
      7 C          63.0580   90.4679   12.8074 C.ar    1  UNL1        0.0968
      8 N          62.8373   90.0518   14.2315 N.ar    1  UNL1       -0.1671
      9 N          63.7332   90.5771   15.3139 N.ar    1  UNL1       -0.2149
     10 C          63.5124   90.1609   16.7380 C.3     1  UNL1        0.1571
     11 C          64.8498   91.5186   14.9721 C.ar    1  UNL1        0.2721
     12 O          65.7456   92.0439   16.0544 O.2     1  UNL1       -0.2659
     13 C          65.0705   91.9347   13.5480 C.ar    1  UNL1        0.0329
     14 C          64.1747   91.4094   12.4656 C.ar    1  UNL1       -0.0022
     15 C          64.3954   91.8256   11.0415 C.3     1  UNL1        0.0278
     16 C          65.5120   92.7670   10.6998 C.3     1  UNL1        0.0051
     17 C          66.4079   93.2923   11.7821 C.3     1  UNL1        0.0052
     18 C          66.1871   92.8762   13.2062 C.3     1  UNL1        0.0310
     19 O          59.4745   88.3667    8.4781 O.3     1  UNL1       -0.4754
     20 C          59.9085   87.1951    7.6481 C.3     1  UNL1        0.2068
     21 C          60.5364   86.0018    8.3053 C.3     1  UNL1        0.0646
     22 C          62.0302   85.8808    8.3701 C.3     1  UNL1        0.0759
     23 C          61.4794   86.1107   11.5784 C.3     1  UNL1        0.0173
     24 C          62.4158   85.1473   10.9114 C.3     1  UNL1        0.0576
     25 C          63.2635   84.1204   11.6021 C.3     1  UNL1        0.0174
     26 C          64.0406   83.3800   10.5542 C.3     1  UNL1        0.0187
     27 C          63.6732   83.9493    9.2159 C.3     1  UNL1        0.0721
     28 N          62.6690   85.0416    9.4367 N.3     1  UNL1       -0.2738
@<TRIPOS>BOND
     1    24    23    1
     2    24    25    1
     3    25    26    1
     4    26    27    1
     5    27    28    1
     6    28    22    1
     7    22    21    1
     8    21    20    1
     9    20    19    1
    10    19     1    1
    11     1     2   ar
    12     2     3   ar
    13     3     4   ar
    14     4     7    1
    15     7     8   ar
    16     8     9   ar
    17     9    10    1
    18     9    11   ar
    19    11    12    2
    20    11    13   ar
    21    13    14   ar
    22    14    15    1
    23    15    16    1
    24    16    17    1
    25    17    18    1
    26     4     5   ar
    27     5     6   ar
    28    28    24    1
    29     6     1   ar
    30    14     7   ar
    31    18    13    1
@<TRIPOS>MOLECULE
*****
 28 31 0 0 0
SMALL
GASTEIGER

@<TRIPOS>ATOM
      1 C          60.1917   87.8440    9.9995 C.ar    1  UNL1        0.1386
      2 C          61.5885   87.3592   10.2525 C.ar    1  UNL1        0.0369
      3 C          62.4749   88.0943   11.2137 C.ar    1  UNL1        0.0047
      4 C          61.9645   89.3141   11.9219 C.ar    1  UNL1        0.0192
      5 C          60.5677   89.7988   11.6689 C.ar    1  UNL1        0.0047
      6 C          59.6813   89.0638   10.7077 C.ar    1  UNL1        0.0369
      7 C          62.8509   90.0492   12.8832 C.ar    1  UNL1        0.0968
      8 N          62.7465   89.7805   14.3552 N.ar    1  UNL1       -0.1671
      9 N          63.6329   90.5156   15.3164 N.ar    1  UNL1       -0.2149
     10 C          63.5286   90.2469   16.7885 C.3     1  UNL1        0.1571
     11 C          64.6237   91.5193   14.8057 C.ar    1  UNL1        0.2721
     12 O          65.5101   92.2544   15.7669 O.2     1  UNL1       -0.2659
     13 C          64.7280   91.7880   13.3336 C.ar    1  UNL1        0.0329
     14 C          63.8416   91.0530   12.3723 C.ar    1  UNL1       -0.0022
     15 C          63.9460   91.3216   10.9003 C.3     1  UNL1        0.0278
     16 C          64.9367   92.3253   10.3895 C.3     1  UNL1        0.0051
     17 C          65.8231   93.0604   11.3508 C.3     1  UNL1        0.0052
     18 C          65.7188   92.7917   12.8228 C.3     1  UNL1        0.0310
     19 O          59.3053   87.1089    9.0382 O.3     1  UNL1       -0.4754
     20 C          59.3754   87.4126    7.5710 C.3     1  UNL1        0.2068
     21 C          59.7910   88.7769    7.1065 C.3     1  UNL1        0.0646
     22 C          58.7779   89.7053    6.5049 C.3     1  UNL1        0.0759
     23 C          56.7993   91.7040    4.8495 C.3     1  UNL1        0.0173
     24 C          58.2918   91.6330    4.7181 C.3     1  UNL1        0.0576
     25 C          59.1369   92.4684    3.8027 C.3     1  UNL1        0.0174
     26 C          60.5687   92.0660    3.9978 C.3     1  UNL1        0.0187
     27 C          60.6086   90.9819    5.0338 C.3     1  UNL1        0.0721
     28 N          59.2013   90.7144    5.4790 N.3     1  UNL1       -0.2738
@<TRIPOS>BOND
     1    24    23    1
     2    24    25    1
     3    25    26    1
     4    26    27    1
     5    27    28    1
     6    28    22    1
     7    22    21    1
     8    21    20    1
     9    20    19    1
    10    19     1    1
    11     1     2   ar
    12     2     3   ar
    13     3     4   ar
    14     4     7    1
    15     7     8   ar
    16     8     9   ar
    17     9    10    1
    18     9    11   ar
    19    11    12    2
    20    11    13   ar
    21    13    14   ar
    22    14    15    1
    23    15    16    1
    24    16    17    1
    25    17    18    1
    26     4     5   ar
    27     5     6   ar
    28    28    24    1
    29     6     1   ar
    30    14     7   ar
    31    18    13    1
@<TRIPOS>MOLECULE
*****
 28 31 0 0 0
SMALL
GASTEIGER

@<TRIPOS>ATOM
      1 C          62.8316   89.7094   11.1296 C.ar    1  UNL1        0.1386
      2 C          63.5104   89.4772   12.4470 C.ar    1  UNL1        0.0369
      3 C          63.5671   88.0956   13.0282 C.ar    1  UNL1        0.0047
      4 C          62.9451   86.9461   12.2920 C.ar    1  UNL1        0.0192
      5 C          62.2664   87.1783   10.9747 C.ar    1  UNL1        0.0047
      6 C          62.2097   88.5599   10.3935 C.ar    1  UNL1        0.0369
      7 C          63.0018   85.5644   12.8733 C.ar    1  UNL1        0.0968
      8 N          62.8106   85.3624   14.3472 N.ar    1  UNL1       -0.1671
      9 N          62.8673   83.9807   14.9284 N.ar    1  UNL1       -0.2149
     10 C          62.6761   83.7787   16.4025 C.3     1  UNL1        0.1571
     11 C          63.1152   82.8011   14.0357 C.ar    1  UNL1        0.2721
     12 O          63.1720   81.4195   14.6169 O.2     1  UNL1       -0.2659
     13 C          63.3065   83.0031   12.5617 C.ar    1  UNL1        0.0329
     14 C          63.2498   84.3848   11.9805 C.ar    1  UNL1       -0.0022
     15 C          63.4410   84.5868   10.5065 C.3     1  UNL1        0.0278
     16 C          63.6889   83.4072    9.6138 C.3     1  UNL1        0.0051
     17 C          63.7456   82.0256   10.1950 C.3     1  UNL1        0.0052
     18 C          63.5544   81.8235   11.6690 C.3     1  UNL1        0.0310
     19 O          62.7749   91.0910   10.5484 O.3     1  UNL1       -0.4754
     20 C          64.0364   91.8835   10.3736 C.3     1  UNL1        0.2068
     21 C          64.8779   92.2268   11.5669 C.3     1  UNL1        0.0646
     22 C          66.3156   92.6140   11.3844 C.3     1  UNL1        0.0759
     23 C          68.4961   92.4854    8.9598 C.3     1  UNL1        0.0173
     24 C          67.6799   93.6822    9.3490 C.3     1  UNL1        0.0576
     25 C          67.7227   95.0300    8.6921 C.3     1  UNL1        0.0174
     26 C          66.7468   95.9221    9.4005 C.3     1  UNL1        0.0187
     27 C          66.1009   95.1257   10.4953 C.3     1  UNL1        0.0721
     28 N          66.6776   93.7413   10.4635 N.3     1  UNL1       -0.2738
@<TRIPOS>BOND
     1    24    23    1
     2    24    25    1
     3    25    26    1
     4    26    27    1
     5    27    28    1
     6    28    22    1
     7    22    21    1
     8    21    20    1
     9    20    19    1
    10    19     1    1
    11     1     2   ar
    12     2     3   ar
    13     3     4   ar
    14     4     7    1
    15     7     8   ar
    16     8     9   ar
    17     9    10    1
    18     9    11   ar
    19    11    12    2
    20    11    13   ar
    21    13    14   ar
    22    14    15    1
    23    15    16    1
    24    16    17    1
    25    17    18    1
    26     4     5   ar
    27     5     6   ar
    28    28    24    1
    29     6     1   ar
    30    14     7   ar
    31    18    13    1
@<TRIPOS>MOLECULE
*****
 28 31 0 0 0
SMALL
GASTEIGER

@<TRIPOS>ATOM
      1 C          60.3521   88.3505    9.8283 C.ar    1  UNL1        0.1386
      2 C          61.7591   87.8378    9.9158 C.ar    1  UNL1        0.0369
      3 C          62.8502   88.7266   10.4350 C.ar    1  UNL1        0.0047
      4 C          62.5343   90.1280   10.8667 C.ar    1  UNL1        0.0192
      5 C          61.1274   90.6406   10.7793 C.ar    1  UNL1        0.0047
      6 C          60.0362   89.7518   10.2601 C.ar    1  UNL1        0.0369
      7 C          63.6254   91.0167   11.3859 C.ar    1  UNL1        0.0968
      8 N          64.3638   91.9244   10.4474 N.ar    1  UNL1       -0.1671
      9 N          65.4549   92.8132   10.9666 N.ar    1  UNL1       -0.2149
     10 C          66.1932   93.7209   10.0279 C.3     1  UNL1        0.1571
     11 C          65.8077   92.7942   12.4243 C.ar    1  UNL1        0.2721
     12 O          66.8988   93.6830   12.9435 O.2     1  UNL1       -0.2659
     13 C          65.0694   91.8865   13.3630 C.ar    1  UNL1        0.0329
     14 C          63.9783   90.9978   12.8438 C.ar    1  UNL1       -0.0022
     15 C          63.2400   90.0901   13.7823 C.3     1  UNL1        0.0278
     16 C          63.5928   90.0711   15.2401 C.3     1  UNL1        0.0051
     17 C          64.6839   90.9599   15.7593 C.3     1  UNL1        0.0052
     18 C          65.4222   91.8676   14.8207 C.3     1  UNL1        0.0310
     19 O          59.2609   87.4618    9.3092 O.3     1  UNL1       -0.4754
     20 C          59.0529   87.3148    7.8310 C.3     1  UNL1        0.2068
     21 C          59.5518   88.3750    6.8943 C.3     1  UNL1        0.0646
     22 C          58.7010   89.5743    6.5976 C.3     1  UNL1        0.0759
     23 C          56.7873   91.6238    4.9281 C.3     1  UNL1        0.0173
     24 C          58.2811   91.5322    4.8269 C.3     1  UNL1        0.0576
     25 C          59.1575   92.3666    3.9405 C.3     1  UNL1        0.0174
     26 C          60.5788   91.9403    4.1600 C.3     1  UNL1        0.0187
     27 C          60.5808   90.8423    5.1821 C.3     1  UNL1        0.0721
     28 N          59.1607   90.5901    5.5942 N.3     1  UNL1       -0.2738
@<TRIPOS>BOND
     1    24    23    1
     2    24    25    1
     3    25    26    1
     4    26    27    1
     5    27    28    1
     6    28    22    1
     7    22    21    1
     8    21    20    1
     9    20    19    1
    10    19     1    1
    11     1     2   ar
    12     2     3   ar
    13     3     4   ar
    14     4     7    1
    15     7     8   ar
    16     8     9   ar
    17     9    10    1
    18     9    11   ar
    19    11    12    2
    20    11    13   ar
    21    13    14   ar
    22    14    15    1
    23    15    16    1
    24    16    17    1
    25    17    18    1
    26     4     5   ar
    27     5     6   ar
    28    28    24    1
    29     6     1   ar
    30    14     7   ar
    31    18    13    1
@<TRIPOS>MOLECULE
*****
 28 31 0 0 0
SMALL
GASTEIGER

@<TRIPOS>ATOM
      1 C          59.7346   88.6879    7.8114 C.ar    1  UNL1        0.1386
      2 C          59.7596   87.1884    7.8404 C.ar    1  UNL1        0.0369
      3 C          60.5130   86.4717    8.9215 C.ar    1  UNL1        0.0047
      4 C          61.2414   87.2545    9.9735 C.ar    1  UNL1        0.0192
      5 C          61.2163   88.7540    9.9445 C.ar    1  UNL1        0.0047
      6 C          60.4629   89.4707    8.8634 C.ar    1  UNL1        0.0369
      7 C          61.9948   86.5378   11.0546 C.ar    1  UNL1        0.0968
      8 N          61.9881   85.0388   11.1061 N.ar    1  UNL1       -0.1671
      9 N          62.7415   84.3221   12.1872 N.ar    1  UNL1       -0.2149
     10 C          62.7348   82.8229   12.2386 C.3     1  UNL1        0.1571
     11 C          63.5016   85.1044   13.2168 C.ar    1  UNL1        0.2721
     12 O          64.2550   84.3878   14.2978 O.2     1  UNL1       -0.2659
     13 C          63.5083   86.6036   13.1653 C.ar    1  UNL1        0.0329
     14 C          62.7549   87.3203   12.0842 C.ar    1  UNL1       -0.0022
     15 C          62.7616   88.8194   12.0327 C.3     1  UNL1        0.0278
     16 C          63.5217   89.6017   13.0623 C.3     1  UNL1        0.0051
     17 C          64.2751   88.8850   14.1434 C.3     1  UNL1        0.0052
     18 C          64.2684   87.3860   14.1949 C.3     1  UNL1        0.0310
     19 O          58.9811   89.4046    6.7303 O.3     1  UNL1       -0.4754
     20 C          59.7234   90.2168    5.7108 C.3     1  UNL1        0.2068
     21 C          58.9995   91.2580    4.9097 C.3     1  UNL1        0.0646
     22 C          59.7191   92.4967    4.4651 C.3     1  UNL1        0.0759
     23 C          62.6812   91.5530    3.4725 C.3     1  UNL1        0.0173
     24 C          61.6140   92.1593    2.6102 C.3     1  UNL1        0.0576
     25 C          61.7210   92.4382    1.1402 C.3     1  UNL1        0.0174
     26 C          60.4256   93.0444    0.6880 C.3     1  UNL1        0.0187
     27 C          59.5180   93.1401    1.8784 C.3     1  UNL1        0.0721
     28 N          60.2525   92.5931    3.0664 N.3     1  UNL1       -0.2738
@<TRIPOS>BOND
     1    24    23    1
     2    24    25    1
     3    25    26    1
     4    26    27    1
     5    27    28    1
     6    28    22    1
     7    22    21    1
     8    21    20    1
     9    20    19    1
    10    19     1    1
    11     1     2   ar
    12     2     3   ar
    13     3     4   ar
    14     4     7    1
    15     7     8   ar
    16     8     9   ar
    17     9    10    1
    18     9    11   ar
    19    11    12    2
    20    11    13   ar
    21    13    14   ar
    22    14    15    1
    23    15    16    1
    24    16    17    1
    25    17    18    1
    26     4     5   ar
    27     5     6   ar
    28    28    24    1
    29     6     1   ar
    30    14     7   ar
    31    18    13    1
