@<TRIPOS>MOLECULE
*****
 46 52 0 0 0
SMALL
GASTEIGER

@<TRIPOS>ATOM
      1 C          60.1428   88.7391    9.4756 C.3     1  UNL1        0.0694
      2 C          60.6918   87.5570    8.7331 C.3     1  UNL1        0.0086
      3 C          60.4891   87.4419    7.2514 C.3     1  UNL1        0.0008
      4 C          59.7373   88.5087    6.5121 C.3     1  UNL1        0.0000
      5 C          59.1883   89.6908    7.2546 C.3     1  UNL1        0.0008
      6 C          59.3910   89.8060    8.7363 C.3     1  UNL1        0.0086
      7 C          60.6926   87.7885    9.4743 C.3     1  UNL1        0.0041
      8 C          61.4436   86.4901    9.4724 C.3     1  UNL1        0.0194
      9 C          61.2409   86.3749    7.9907 C.3     1  UNL1        0.0041
     10 C          60.8945   87.6722   10.2149 C.3     1  UNL1        0.0127
     11 C          65.8970   92.7205   12.1751 C.ar    1  UNL1        0.1721
     12 C          64.9489   92.0394   13.1169 C.ar    1  UNL1        0.0356
     13 C          63.7980   91.2431   12.5771 C.ar    1  UNL1       -0.0196
     14 C          63.5953   91.1279   11.0953 C.ar    1  UNL1       -0.0030
     15 C          64.5435   91.8091   10.1534 C.ar    1  UNL1        0.0371
     16 C          65.6943   92.6053   10.6933 C.ar    1  UNL1        0.1721
     17 C          62.4445   90.3316   10.5554 C.3     1  UNL1        0.1199
     18 N          61.4964   89.6505   11.4973 N.am    1  UNL1       -0.2751
     19 C          60.3455   88.8542   10.9574 C.2     1  UNL1        0.2250
     20 O          59.3974   88.1731   11.8993 O.2     1  UNL1       -0.2749
     21 C          61.6991   89.7657   12.9790 C.3     1  UNL1        0.0984
     22 C          62.8499   90.5620   13.5189 C.3     1  UNL1        0.0477
     23 C          67.2150   93.6839   14.1962 C.3     1  UNL1        0.2526
     24 O          67.0479   93.5168   12.7150 O.3     1  UNL1       -0.4684
     25 O          66.6425   93.2865    9.7514 O.3     1  UNL1       -0.4684
     26 C          67.9954   92.6937    9.4902 C.3     1  UNL1        0.2526
     27 C          62.1954   85.4232   10.2117 C.ar    1  UNL1       -0.0226
     28 C          63.1878   84.5646    9.4852 C.ar    1  UNL1       -0.0012
     29 C          63.9396   83.4977   10.2245 C.ar    1  UNL1        0.0366
     30 C          63.6990   83.2894   11.6903 C.ar    1  UNL1        0.1393
     31 C          62.7065   84.1481   12.4169 C.ar    1  UNL1        0.0366
     32 C          61.9547   85.2149   11.6776 C.ar    1  UNL1       -0.0012
     33 O          64.4507   82.2225   12.4296 O.3     1  UNL1       -0.4656
     34 C          64.9954   82.5010   13.7992 C.3     1  UNL1        0.2897
     35 C          64.2464   83.4026   14.7352 C.2     1  UNL1        0.2707
     36 O          63.0629   82.8795   15.4940 O.2     1  UNL1       -0.2707
     37 N          64.6808   84.8273   14.9124 N.am    1  UNL1       -0.2808
     38 H          65.4576   85.1707   14.4143 H       1  UNL1        0.1550
     39 C          63.9318   85.7290   15.8484 C.ar    1  UNL1        0.0511
     40 C          63.0519   85.1418   16.9118 C.ar    1  UNL1        0.0147
     41 C          62.3029   86.0435   17.8477 C.ar    1  UNL1        0.0020
     42 C          62.4339   87.5323   17.7203 C.ar    1  UNL1        0.0104
     43 C          63.3139   88.1195   16.6569 C.ar    1  UNL1        0.0697
     44 C          64.0628   87.2178   15.7209 C.ar    1  UNL1        0.0249
     45 C          63.4449   89.6083   16.5294 C.1     1  UNL1        0.1005
     46 N          63.5759   91.0971   16.4019 N.1     1  UNL1       -0.1908
@<TRIPOS>BOND
     1    23    24    1
     2    24    11    1
     3    11    12   ar
     4    12    13   ar
     5    13    14   ar
     6    14    15   ar
     7    15    16   ar
     8    16    25    1
     9    25    26    1
    10    14    17    1
    11    17    18    1
    12    18    19   am
    13    19    20    2
    14    19     1    1
    15     1     2    1
    16     2     3    1
    17     3     4    1
    18     4     5    1
    19     5     6    1
    20     5     7    1
    21     7     8    1
    22     8    27    1
    23    27    28   ar
    24    28    29   ar
    25    29    30   ar
    26    30    33    1
    27    33    34    1
    28    34    35    1
    29    35    36    2
    30    35    37   am
    31    37    39    1
    32    39    40   ar
    33    40    41   ar
    34    41    42   ar
    35    42    43   ar
    36    43    45    1
    37    45    46    3
    38    43    44   ar
    39    30    31   ar
    40    31    32   ar
    41     8     9    1
    42     8    10    1
    43    18    21    1
    44    21    22    1
    45    16    11   ar
    46     6     1    1
    47    32    27   ar
    48    22    13    1
    49    10     1    1
    50     9     3    1
    51    44    39   ar
    52    37    38    1
@<TRIPOS>MOLECULE
*****
 46 52 0 0 0
SMALL
GASTEIGER

@<TRIPOS>ATOM
      1 C          65.2311   91.5817   15.0941 C.3     1  UNL1        0.0694
      2 C          65.2104   91.3557   13.6115 C.3     1  UNL1        0.0086
      3 C          66.3483   91.8407   12.7629 C.3     1  UNL1        0.0008
      4 C          67.5068   92.5517   13.3970 C.3     1  UNL1        0.0000
      5 C          67.5276   92.7777   14.8798 C.3     1  UNL1        0.0008
      6 C          66.3898   92.2927   15.7284 C.3     1  UNL1        0.0086
      7 C          64.7327   91.1857   14.1994 C.3     1  UNL1        0.0041
      8 C          64.0518   90.6447   12.9773 C.3     1  UNL1        0.0194
      9 C          65.1896   91.1297   12.1287 C.3     1  UNL1        0.0041
     10 C          64.0726   90.8707   14.4600 C.3     1  UNL1        0.0127
     11 C          63.5625   84.2728   15.3083 C.ar    1  UNL1        0.1721
     12 C          62.7583   85.2496   16.1140 C.ar    1  UNL1        0.0356
     13 C          63.0921   86.7114   16.0712 C.ar    1  UNL1       -0.0196
     14 C          64.2299   87.1964   15.2226 C.ar    1  UNL1       -0.0030
     15 C          65.0341   86.2195   14.4169 C.ar    1  UNL1        0.0371
     16 C          64.7003   84.7578   14.4597 C.ar    1  UNL1        0.1721
     17 C          64.5637   88.6581   15.1798 C.3     1  UNL1        0.1199
     18 N          63.7596   89.6349   15.9855 N.am    1  UNL1       -0.2751
     19 C          64.0933   91.0967   15.9427 C.2     1  UNL1        0.2250
     20 O          63.2892   92.0735   16.7485 O.2     1  UNL1       -0.2749
     21 C          62.6217   89.1499   16.8341 C.3     1  UNL1        0.0984
     22 C          62.2880   87.6882   16.8770 C.3     1  UNL1        0.0477
     23 C          62.1240   82.2685   14.4936 C.3     1  UNL1        0.2526
     24 O          63.2287   82.8110   15.3511 O.3     1  UNL1       -0.4684
     25 O          65.5044   83.7809   13.6539 O.3     1  UNL1       -0.4684
     26 C          64.9308   83.1920   12.3993 C.3     1  UNL1        0.2526
     27 C          62.8932   89.9337   12.3431 C.ar    1  UNL1       -0.0226
     28 C          61.5811   90.6406   12.1740 C.ar    1  UNL1       -0.0012
     29 C          60.4224   89.9296   11.5399 C.ar    1  UNL1        0.0366
     30 C          60.5759   88.5118   11.0749 C.ar    1  UNL1        0.1393
     31 C          61.8882   87.8049   11.2440 C.ar    1  UNL1        0.0366
     32 C          63.0468   88.5159   11.8781 C.ar    1  UNL1       -0.0012
     33 O          59.4174   87.8008   10.4407 O.3     1  UNL1       -0.4656
     34 C          59.3919   87.5836    8.9568 C.3     1  UNL1        0.2897
     35 C          59.5737   88.7454    8.0255 C.2     1  UNL1        0.2707
     36 O          60.5885   89.8051    8.3376 O.2     1  UNL1       -0.2707
     37 N          58.7409   88.8475    6.7822 N.am    1  UNL1       -0.2808
     38 H          58.0749   88.1520    6.5773 H       1  UNL1        0.1550
     39 C          58.9228   90.0093    5.8509 C.ar    1  UNL1        0.0511
     40 C          57.7497   90.8713    5.4892 C.ar    1  UNL1        0.0147
     41 C          57.9316   92.0331    4.5579 C.ar    1  UNL1        0.0020
     42 C          59.2866   92.3328    3.9884 C.ar    1  UNL1        0.0104
     43 C          60.4596   91.4708    4.3502 C.ar    1  UNL1        0.0697
     44 C          60.2777   90.3091    5.2814 C.ar    1  UNL1        0.0249
     45 C          61.8145   91.7706    3.7807 C.1     1  UNL1        0.1005
     46 N          63.1694   92.0703    3.2112 N.1     1  UNL1       -0.1908
@<TRIPOS>BOND
     1    23    24    1
     2    24    11    1
     3    11    12   ar
     4    12    13   ar
     5    13    14   ar
     6    14    15   ar
     7    15    16   ar
     8    16    25    1
     9    25    26    1
    10    14    17    1
    11    17    18    1
    12    18    19   am
    13    19    20    2
    14    19     1    1
    15     1     2    1
    16     2     3    1
    17     3     4    1
    18     4     5    1
    19     5     6    1
    20     5     7    1
    21     7     8    1
    22     8    27    1
    23    27    28   ar
    24    28    29   ar
    25    29    30   ar
    26    30    33    1
    27    33    34    1
    28    34    35    1
    29    35    36    2
    30    35    37   am
    31    37    39    1
    32    39    40   ar
    33    40    41   ar
    34    41    42   ar
    35    42    43   ar
    36    43    45    1
    37    45    46    3
    38    43    44   ar
    39    30    31   ar
    40    31    32   ar
    41     8     9    1
    42     8    10    1
    43    18    21    1
    44    21    22    1
    45    16    11   ar
    46     6     1    1
    47    32    27   ar
    48    22    13    1
    49    10     1    1
    50     9     3    1
    51    44    39   ar
    52    37    38    1
@<TRIPOS>MOLECULE
*****
 46 52 0 0 0
SMALL
GASTEIGER

@<TRIPOS>ATOM
      1 C          65.8001   91.8630   15.2997 C.3     1  UNL1        0.0694
      2 C          65.9187   91.7196   13.8113 C.3     1  UNL1        0.0086
      3 C          67.2144   92.0414   13.1276 C.3     1  UNL1        0.0008
      4 C          68.3916   92.5068   13.9324 C.3     1  UNL1        0.0000
      5 C          68.2731   92.6502   15.4208 C.3     1  UNL1        0.0008
      6 C          66.9773   92.3283   16.1045 C.3     1  UNL1        0.0086
      7 C          65.3526   91.6057   14.3304 C.3     1  UNL1        0.0041
      8 C          64.7414   91.2542   13.0065 C.3     1  UNL1        0.0194
      9 C          66.0372   91.5761   12.3228 C.3     1  UNL1        0.0041
     10 C          64.6229   91.3977   14.4950 C.3     1  UNL1        0.0127
     11 C          63.4097   84.7629   15.6538 C.ar    1  UNL1        0.1721
     12 C          62.5920   85.8610   16.2666 C.ar    1  UNL1        0.0356
     13 C          63.0701   87.2811   16.1958 C.ar    1  UNL1       -0.0196
     14 C          64.3658   87.6030   15.5122 C.ar    1  UNL1       -0.0030
     15 C          65.1835   86.5048   14.8993 C.ar    1  UNL1        0.0371
     16 C          64.7054   85.0848   14.9702 C.ar    1  UNL1        0.1721
     17 C          64.8439   89.0229   15.4413 C.3     1  UNL1        0.1199
     18 N          64.0263   90.1210   16.0541 N.am    1  UNL1       -0.2751
     19 C          64.5043   91.5411   15.9833 C.2     1  UNL1        0.2250
     20 O          63.6867   92.6392   16.5962 O.2     1  UNL1       -0.2749
     21 C          62.7305   89.7991   16.7378 C.3     1  UNL1        0.0984
     22 C          62.2524   88.3792   16.8086 C.3     1  UNL1        0.0477
     23 C          61.9090   82.8461   14.7461 C.3     1  UNL1        0.2526
     24 O          62.9316   83.3429   15.7246 O.3     1  UNL1       -0.4684
     25 O          65.5231   83.9867   14.3573 O.3     1  UNL1       -0.4684
     26 C          65.2908   83.5853   12.9308 C.3     1  UNL1        0.2526
     27 C          63.5642   90.7889   12.2018 C.ar    1  UNL1       -0.0226
     28 C          62.4857   89.9746   12.8525 C.ar    1  UNL1       -0.0012
     29 C          61.3084   89.5092   12.0478 C.ar    1  UNL1        0.0366
     30 C          61.2097   89.8582   10.5923 C.ar    1  UNL1        0.1393
     31 C          62.2884   90.6726    9.9415 C.ar    1  UNL1        0.0366
     32 C          63.4656   91.1379   10.7463 C.ar    1  UNL1       -0.0012
     33 O          60.0325   89.3929    9.7876 O.3     1  UNL1       -0.4656
     34 C          59.5037   88.0009    9.9682 C.3     1  UNL1        0.2897
     35 C          60.3855   86.8209    9.6846 C.2     1  UNL1        0.2707
     36 O          60.3848   86.1946    8.3216 O.2     1  UNL1       -0.2707
     37 N          61.2678   86.2674   10.7639 N.am    1  UNL1       -0.2808
     38 H          61.2683   86.6786   11.6585 H       1  UNL1        0.1550
     39 C          62.1495   85.0875   10.4804 C.ar    1  UNL1        0.0511
     40 C          63.1651   85.1577    9.3787 C.ar    1  UNL1        0.0147
     41 C          64.0468   83.9778    9.0952 C.ar    1  UNL1        0.0020
     42 C          63.9129   82.7277    9.9133 C.ar    1  UNL1        0.0104
     43 C          62.8973   82.6575   11.0149 C.ar    1  UNL1        0.0697
     44 C          62.0156   83.8374   11.2985 C.ar    1  UNL1        0.0249
     45 C          62.7634   81.4074   11.8330 C.1     1  UNL1        0.1005
     46 N          62.6294   80.1572   12.6511 N.1     1  UNL1       -0.1908
@<TRIPOS>BOND
     1    23    24    1
     2    24    11    1
     3    11    12   ar
     4    12    13   ar
     5    13    14   ar
     6    14    15   ar
     7    15    16   ar
     8    16    25    1
     9    25    26    1
    10    14    17    1
    11    17    18    1
    12    18    19   am
    13    19    20    2
    14    19     1    1
    15     1     2    1
    16     2     3    1
    17     3     4    1
    18     4     5    1
    19     5     6    1
    20     5     7    1
    21     7     8    1
    22     8    27    1
    23    27    28   ar
    24    28    29   ar
    25    29    30   ar
    26    30    33    1
    27    33    34    1
    28    34    35    1
    29    35    36    2
    30    35    37   am
    31    37    39    1
    32    39    40   ar
    33    40    41   ar
    34    41    42   ar
    35    42    43   ar
    36    43    45    1
    37    45    46    3
    38    43    44   ar
    39    30    31   ar
    40    31    32   ar
    41     8     9    1
    42     8    10    1
    43    18    21    1
    44    21    22    1
    45    16    11   ar
    46     6     1    1
    47    32    27   ar
    48    22    13    1
    49    10     1    1
    50     9     3    1
    51    44    39   ar
    52    37    38    1
@<TRIPOS>MOLECULE
*****
 46 52 0 0 0
SMALL
GASTEIGER

@<TRIPOS>ATOM
      1 C          63.0068   82.5538   11.9445 C.3     1  UNL1        0.0694
      2 C          62.8807   83.1639   13.3089 C.3     1  UNL1        0.0086
      3 C          62.3468   82.3481   14.4489 C.3     1  UNL1        0.0008
      4 C          61.9390   80.9222   14.2243 C.3     1  UNL1        0.0000
      5 C          62.0651   80.3120   12.8598 C.3     1  UNL1        0.0008
      6 C          62.5990   81.1278   11.7199 C.3     1  UNL1        0.0086
      7 C          63.1259   83.4144   12.6161 C.3     1  UNL1        0.0041
      8 C          63.2885   84.5899   13.5335 C.3     1  UNL1        0.0194
      9 C          62.7546   83.7741   14.6735 C.3     1  UNL1        0.0041
     10 C          63.4146   83.9797   12.1690 C.3     1  UNL1        0.0127
     11 C          60.0235   89.2625   10.4136 C.ar    1  UNL1        0.1721
     12 C          61.1541   88.7365    9.5799 C.ar    1  UNL1        0.0356
     13 C          61.7508   87.3948    9.8860 C.ar    1  UNL1       -0.0196
     14 C          61.2169   86.5790   11.0260 C.ar    1  UNL1       -0.0030
     15 C          60.0862   87.1050   11.8597 C.ar    1  UNL1        0.0371
     16 C          59.4896   88.4467   11.5535 C.ar    1  UNL1        0.1721
     17 C          61.8135   85.2373   11.3321 C.3     1  UNL1        0.1199
     18 N          62.9441   84.7113   10.4984 N.am    1  UNL1       -0.2751
     19 C          63.5408   83.3696   10.8046 C.2     1  UNL1        0.2250
     20 O          64.6713   82.8436    9.9708 O.2     1  UNL1       -0.2749
     21 C          63.4780   85.5271    9.3585 C.3     1  UNL1        0.0984
     22 C          62.8813   86.8688    9.0523 C.3     1  UNL1        0.0477
     23 C          58.9756   91.4970   11.2252 C.3     1  UNL1        0.2526
     24 O          59.4268   90.6042   10.1075 O.3     1  UNL1       -0.4684
     25 O          58.3590   88.9727   12.3873 O.3     1  UNL1       -0.4684
     26 C          58.2720   88.6184   13.8423 C.3     1  UNL1        0.2526
     27 C          63.6963   86.0158   13.7581 C.ar    1  UNL1       -0.0226
     28 C          63.3661   87.0604   12.7336 C.ar    1  UNL1       -0.0012
     29 C          63.7739   88.4864   12.9581 C.ar    1  UNL1        0.0366
     30 C          64.5119   88.8677   14.2071 C.ar    1  UNL1        0.1393
     31 C          64.8420   87.8229   15.2316 C.ar    1  UNL1        0.0366
     32 C          64.4343   86.3970   15.0071 C.ar    1  UNL1       -0.0012
     33 O          64.9197   90.2936   14.4316 O.3     1  UNL1       -0.4656
     34 C          64.2953   91.3890   13.6191 C.3     1  UNL1        0.2897
     35 C          64.9330   91.8259   12.3336 C.2     1  UNL1        0.2707
     36 O          64.1606   91.7512   11.0499 O.2     1  UNL1       -0.2707
     37 N          66.3430   92.3376   12.3318 N.am    1  UNL1       -0.2808
     38 H          66.8500   92.3867   13.1743 H       1  UNL1        0.1550
     39 C          66.9807   92.7745   11.0462 C.ar    1  UNL1        0.0511
     40 C          68.1328   91.9994   10.4791 C.ar    1  UNL1        0.0147
     41 C          68.7705   92.4363    9.1936 C.ar    1  UNL1        0.0020
     42 C          68.2559   93.6484    8.4753 C.ar    1  UNL1        0.0104
     43 C          67.1038   94.4236    9.0424 C.ar    1  UNL1        0.0697
     44 C          66.4662   93.9866   10.3278 C.ar    1  UNL1        0.0249
     45 C          66.5893   95.6357    8.3240 C.1     1  UNL1        0.1005
     46 N          66.0748   96.8478    7.6057 N.1     1  UNL1       -0.1908
@<TRIPOS>BOND
     1    23    24    1
     2    24    11    1
     3    11    12   ar
     4    12    13   ar
     5    13    14   ar
     6    14    15   ar
     7    15    16   ar
     8    16    25    1
     9    25    26    1
    10    14    17    1
    11    17    18    1
    12    18    19   am
    13    19    20    2
    14    19     1    1
    15     1     2    1
    16     2     3    1
    17     3     4    1
    18     4     5    1
    19     5     6    1
    20     5     7    1
    21     7     8    1
    22     8    27    1
    23    27    28   ar
    24    28    29   ar
    25    29    30   ar
    26    30    33    1
    27    33    34    1
    28    34    35    1
    29    35    36    2
    30    35    37   am
    31    37    39    1
    32    39    40   ar
    33    40    41   ar
    34    41    42   ar
    35    42    43   ar
    36    43    45    1
    37    45    46    3
    38    43    44   ar
    39    30    31   ar
    40    31    32   ar
    41     8     9    1
    42     8    10    1
    43    18    21    1
    44    21    22    1
    45    16    11   ar
    46     6     1    1
    47    32    27   ar
    48    22    13    1
    49    10     1    1
    50     9     3    1
    51    44    39   ar
    52    37    38    1
