@<TRIPOS>MOLECULE
*****
 23 27 0 0 0
SMALL
GASTEIGER

@<TRIPOS>ATOM
      1 C          62.8727   86.2032   12.0577 C.3     1  UNL1        0.1122
      2 C          62.1818   87.0763   11.0525 C.ar    1  UNL1       -0.0002
      3 C          61.3633   86.7542    9.8375 C.ar    1  UNL1       -0.0024
      4 C          60.7873   87.8617    9.0060 C.ar    1  UNL1       -0.0003
      5 C          61.0298   89.2915    9.3896 C.ar    1  UNL1        0.0000
      6 C          61.8483   89.6136   10.6045 C.ar    1  UNL1        0.0012
      7 C          62.4243   88.5060   11.4360 C.ar    1  UNL1        0.0152
      8 C          63.2650   88.5165   12.6782 C.ar    1  UNL1        0.0804
      9 C          63.9345   89.4067   13.6830 C.ar    1  UNL1        0.1177
     10 N          64.6253   88.5335   14.6882 N.ar    1  UNL1       -0.2223
     11 C          64.3828   87.1037   14.3047 C.ar    1  UNL1        0.1788
     12 N          63.5421   87.0933   13.0625 N.ar    1  UNL1       -0.3069
     13 O          61.9033   84.6919   14.4612 O.3     1  UNL1       -0.3784
     14 C          62.4061   83.9476   13.2598 C.3     1  UNL1        0.1519
     15 C          62.4243   82.4477   13.2602 C.ar    1  UNL1        0.0839
     16 C          62.0127   81.4392   14.2915 C.ar    1  UNL1        0.0392
     17 C          62.2612   80.0717   13.7275 C.ar    1  UNL1        0.1214
     18 N          62.8263   80.2350   12.3477 N.ar    1  UNL1       -0.1679
     19 N          62.9271   81.7035   12.0588 N.ar    1  UNL1       -0.2526
     20 C          63.4118   82.4591   10.8572 C.3     1  UNL1        0.1273
     21 C          63.3936   83.9590   10.8568 C.3     1  UNL1        0.0314
     22 C          62.8908   84.7033   12.0581 C.3     1  UNL1        0.0597
     23 H          61.6307   84.0584   15.1433 H       1  UNL1        0.2108
@<TRIPOS>BOND
     1    14    13    1
     2    14    15    1
     3    15    16   ar
     4    16    17   ar
     5    17    18   ar
     6    18    19   ar
     7    19    20    1
     8    20    21    1
     9    22    21    1
    10    22     1    1
    11     1     2    1
    12     2     3   ar
    13     3     4   ar
    14     4     5   ar
    15     5     6   ar
    16     6     7   ar
    17     7     8    1
    18     8     9   ar
    19     9    10   ar
    20    10    11   ar
    21    11    12   ar
    22    22    14    1
    23     1    12    1
    24    19    15   ar
    25     7     2   ar
    26    12     8   ar
    27    13    23    1
@<TRIPOS>MOLECULE
*****
 23 27 0 0 0
SMALL
GASTEIGER

@<TRIPOS>ATOM
      1 C          62.1731   86.5734   10.6512 C.3     1  UNL1        0.1122
      2 C          61.1929   86.9207    9.5702 C.ar    1  UNL1       -0.0002
      3 C          60.4837   86.0799    8.5504 C.ar    1  UNL1       -0.0024
      4 C          59.5399   86.7199    7.5760 C.ar    1  UNL1       -0.0003
      5 C          59.3054   88.2008    7.6212 C.ar    1  UNL1        0.0000
      6 C          60.0146   89.0416    8.6410 C.ar    1  UNL1        0.0012
      7 C          60.9584   88.4016    9.6155 C.ar    1  UNL1        0.0152
      8 C          61.7936   88.9695   10.7245 C.ar    1  UNL1        0.0804
      9 C          62.1648   90.2357   11.4380 C.ar    1  UNL1        0.1177
     10 N          63.1450   89.8883   12.5190 N.ar    1  UNL1       -0.2223
     11 C          63.3795   88.4075   12.4737 C.ar    1  UNL1        0.1788
     12 N          62.5443   87.8396   11.3647 N.ar    1  UNL1       -0.3069
     13 O          61.8413   85.4369   13.4078 O.3     1  UNL1       -0.3784
     14 C          62.5252   84.6326   12.3423 C.3     1  UNL1        0.1519
     15 C          63.0431   83.2600   12.6550 C.ar    1  UNL1        0.0839
     16 C          63.0251   82.4429   13.9127 C.ar    1  UNL1        0.0392
     17 C          63.6979   81.1336   13.6245 C.ar    1  UNL1        0.1214
     18 N          64.1316   81.1415   12.1887 N.ar    1  UNL1       -0.1679
     19 N          63.7270   82.4557   11.5894 N.ar    1  UNL1       -0.2526
     20 C          63.8929   83.0240   10.2112 C.3     1  UNL1        0.1273
     21 C          63.3749   84.3965    9.8985 C.3     1  UNL1        0.0314
     22 C          62.6911   85.2009   10.9639 C.3     1  UNL1        0.0597
     23 H          61.8178   84.9271   14.2327 H       1  UNL1        0.2108
@<TRIPOS>BOND
     1    14    13    1
     2    14    15    1
     3    15    16   ar
     4    16    17   ar
     5    17    18   ar
     6    18    19   ar
     7    19    20    1
     8    20    21    1
     9    22    21    1
    10    22     1    1
    11     1     2    1
    12     2     3   ar
    13     3     4   ar
    14     4     5   ar
    15     5     6   ar
    16     6     7   ar
    17     7     8    1
    18     8     9   ar
    19     9    10   ar
    20    10    11   ar
    21    11    12   ar
    22    22    14    1
    23     1    12    1
    24    19    15   ar
    25     7     2   ar
    26    12     8   ar
    27    13    23    1
@<TRIPOS>MOLECULE
*****
 23 27 0 0 0
SMALL
GASTEIGER

@<TRIPOS>ATOM
      1 C          62.7206   86.2579   11.7675 C.3     1  UNL1        0.1122
      2 C          63.3257   87.2294   12.7370 C.ar    1  UNL1       -0.0002
      3 C          64.1439   87.0306   13.9784 C.ar    1  UNL1       -0.0024
      4 C          64.6200   88.2184   14.7610 C.ar    1  UNL1       -0.0003
      5 C          64.2781   89.6050   14.3021 C.ar    1  UNL1        0.0000
      6 C          63.4599   89.8037   13.0607 C.ar    1  UNL1        0.0012
      7 C          62.9838   88.6160   12.2782 C.ar    1  UNL1        0.0152
      8 C          62.1673   88.5014   11.0251 C.ar    1  UNL1        0.0804
      9 C          61.4514   89.2875    9.9670 C.ar    1  UNL1        0.1177
     10 N          60.8464   88.3159    8.9974 N.ar    1  UNL1       -0.2223
     11 C          61.1883   86.9294    9.4563 C.ar    1  UNL1        0.1788
     12 N          62.0047   87.0440   10.7094 N.ar    1  UNL1       -0.3069
     13 O          61.8305   84.8217   14.2465 O.3     1  UNL1       -0.3784
     14 C          62.3699   84.0447   13.0823 C.3     1  UNL1        0.1519
     15 C          62.4642   82.5495   13.1576 C.ar    1  UNL1        0.0839
     16 C          62.1049   81.5744   14.2393 C.ar    1  UNL1        0.0392
     17 C          62.4222   80.1947   13.7437 C.ar    1  UNL1        0.1214
     18 N          62.9776   80.3171   12.3557 N.ar    1  UNL1       -0.1679
     19 N          63.0035   81.7725   11.9935 N.ar    1  UNL1       -0.2526
     20 C          63.4486   82.4905   10.7540 C.3     1  UNL1        0.1273
     21 C          63.3543   83.9857   10.6787 C.3     1  UNL1        0.0314
     22 C          62.8149   84.7628   11.8428 C.3     1  UNL1        0.0597
     23 H          61.5908   84.2102   14.9602 H       1  UNL1        0.2108
@<TRIPOS>BOND
     1    14    13    1
     2    14    15    1
     3    15    16   ar
     4    16    17   ar
     5    17    18   ar
     6    18    19   ar
     7    19    20    1
     8    20    21    1
     9    22    21    1
    10    22     1    1
    11     1     2    1
    12     2     3   ar
    13     3     4   ar
    14     4     5   ar
    15     5     6   ar
    16     6     7   ar
    17     7     8    1
    18     8     9   ar
    19     9    10   ar
    20    10    11   ar
    21    11    12   ar
    22    22    14    1
    23     1    12    1
    24    19    15   ar
    25     7     2   ar
    26    12     8   ar
    27    13    23    1
@<TRIPOS>MOLECULE
*****
 23 27 0 0 0
SMALL
GASTEIGER

@<TRIPOS>ATOM
      1 C          61.9585   86.5922   10.1851 C.3     1  UNL1        0.1122
      2 C          62.2484   87.9306   10.7970 C.ar    1  UNL1       -0.0002
      3 C          63.1677   88.3494   11.9058 C.ar    1  UNL1       -0.0024
      4 C          63.2482   89.7920   12.3087 C.ar    1  UNL1       -0.0003
      5 C          62.4094   90.8158   11.6029 C.ar    1  UNL1        0.0000
      6 C          61.4901   90.3970   10.4941 C.ar    1  UNL1        0.0012
      7 C          61.4096   88.9544   10.0912 C.ar    1  UNL1        0.0152
      8 C          60.6014   88.2487    9.0430 C.ar    1  UNL1        0.0804
      9 C          59.5834   88.4453    7.9588 C.ar    1  UNL1        0.1177
     10 N          59.2936   87.1068    7.3469 N.ar    1  UNL1       -0.2223
     11 C          60.1324   86.0830    8.0528 C.ar    1  UNL1        0.1788
     12 N          60.9406   86.7887    9.1010 N.ar    1  UNL1       -0.3069
     13 O          61.6345   85.5780   12.9898 O.3     1  UNL1       -0.3784
     14 C          62.4159   84.7793   11.9891 C.3     1  UNL1        0.1519
     15 C          63.0352   83.4735   12.3908 C.ar    1  UNL1        0.0839
     16 C          63.0449   82.7249   13.6906 C.ar    1  UNL1        0.0392
     17 C          63.8322   81.4635   13.4932 C.ar    1  UNL1        0.1214
     18 N          64.3091   81.4325   12.0714 N.ar    1  UNL1       -0.1679
     19 N          63.8166   82.6747   11.3900 N.ar    1  UNL1       -0.2526
     20 C          63.9786   83.1818    9.9877 C.3     1  UNL1        0.1273
     21 C          63.3593   84.4876    9.5861 C.3     1  UNL1        0.0314
     22 C          62.5779   85.2864   10.5867 C.3     1  UNL1        0.0597
     23 H          61.6270   85.1120   13.8406 H       1  UNL1        0.2108
@<TRIPOS>BOND
     1    14    13    1
     2    14    15    1
     3    15    16   ar
     4    16    17   ar
     5    17    18   ar
     6    18    19   ar
     7    19    20    1
     8    20    21    1
     9    22    21    1
    10    22     1    1
    11     1     2    1
    12     2     3   ar
    13     3     4   ar
    14     4     5   ar
    15     5     6   ar
    16     6     7   ar
    17     7     8    1
    18     8     9   ar
    19     9    10   ar
    20    10    11   ar
    21    11    12   ar
    22    22    14    1
    23     1    12    1
    24    19    15   ar
    25     7     2   ar
    26    12     8   ar
    27    13    23    1
@<TRIPOS>MOLECULE
*****
 23 27 0 0 0
SMALL
GASTEIGER

@<TRIPOS>ATOM
      1 C          62.8049   85.1932   11.8489 C.3     1  UNL1        0.1122
      2 C          62.9775   83.7898   12.3497 C.ar    1  UNL1       -0.0002
      3 C          62.6061   82.4612   11.7607 C.ar    1  UNL1       -0.0024
      4 C          62.9111   81.1976   12.5090 C.ar    1  UNL1       -0.0003
      5 C          63.5875   81.2625   13.8463 C.ar    1  UNL1        0.0000
      6 C          63.9589   82.5910   14.4353 C.ar    1  UNL1        0.0012
      7 C          63.6539   83.8547   13.6869 C.ar    1  UNL1        0.0152
      8 C          63.8993   85.2982   14.0126 C.ar    1  UNL1        0.0804
      9 C          64.4691   86.2305   15.0405 C.ar    1  UNL1        0.1177
     10 N          64.2965   87.6339   14.5397 N.ar    1  UNL1       -0.2223
     11 C          63.6201   87.5690   13.2024 C.ar    1  UNL1        0.1788
     12 N          63.3746   86.1255   12.8767 N.ar    1  UNL1       -0.3069
     13 O          60.4619   87.0668   11.8338 O.3     1  UNL1       -0.3784
     14 C          61.0019   86.5308   10.5411 C.3     1  UNL1        0.1519
     15 C          60.3705   86.9315    9.2408 C.ar    1  UNL1        0.0839
     16 C          59.2136   87.8316    8.9222 C.ar    1  UNL1        0.0392
     17 C          59.0387   87.8518    7.4325 C.ar    1  UNL1        0.1214
     18 N          60.0875   86.9643    6.8306 N.ar    1  UNL1       -0.1679
     19 N          60.9106   86.3955    7.9481 N.ar    1  UNL1       -0.2526
     20 C          62.0821   85.4588    7.9557 C.3     1  UNL1        0.1273
     21 C          62.7135   85.0581    9.2560 C.3     1  UNL1        0.0314
     22 C          62.1735   85.5940   10.5487 C.3     1  UNL1        0.0597
     23 H          59.7108   87.6531   11.6520 H       1  UNL1        0.2108
@<TRIPOS>BOND
     1    14    13    1
     2    14    15    1
     3    15    16   ar
     4    16    17   ar
     5    17    18   ar
     6    18    19   ar
     7    19    20    1
     8    20    21    1
     9    22    21    1
    10    22     1    1
    11     1     2    1
    12     2     3   ar
    13     3     4   ar
    14     4     5   ar
    15     5     6   ar
    16     6     7   ar
    17     7     8    1
    18     8     9   ar
    19     9    10   ar
    20    10    11   ar
    21    11    12   ar
    22    22    14    1
    23     1    12    1
    24    19    15   ar
    25     7     2   ar
    26    12     8   ar
    27    13    23    1
@<TRIPOS>MOLECULE
*****
 23 27 0 0 0
SMALL
GASTEIGER

@<TRIPOS>ATOM
      1 C          63.5463   90.6568   12.5526 C.3     1  UNL1        0.1122
      2 C          64.5742   91.6952   12.2134 C.ar    1  UNL1       -0.0002
      3 C          65.0605   92.2349   10.9011 C.ar    1  UNL1       -0.0024
      4 C          66.1224   93.2940   10.8729 C.ar    1  UNL1       -0.0003
      5 C          66.6980   93.8132   12.1571 C.ar    1  UNL1        0.0000
      6 C          66.2117   93.2735   13.4694 C.ar    1  UNL1        0.0012
      7 C          65.1498   92.2145   13.4975 C.ar    1  UNL1        0.0152
      8 C          64.4776   91.4970   14.6304 C.ar    1  UNL1        0.0804
      9 C          64.4179   91.3746   16.1242 C.ar    1  UNL1        0.1177
     10 N          63.3899   90.3362   16.4634 N.ar    1  UNL1       -0.2223
     11 C          62.8143   89.8169   15.1793 C.ar    1  UNL1        0.1788
     12 N          63.4865   90.5343   14.0464 N.ar    1  UNL1       -0.3069
     13 O          63.5204   87.6588   12.6615 O.3     1  UNL1       -0.3784
     14 C          62.7097   88.3787   11.6249 C.3     1  UNL1        0.1519
     15 C          61.8861   87.5996   10.6427 C.ar    1  UNL1        0.0839
     16 C          61.6773   86.1263   10.4537 C.ar    1  UNL1        0.0392
     17 C          60.7375   85.9356    9.3002 C.ar    1  UNL1        0.1214
     18 N          60.3655   87.2910    8.7764 N.ar    1  UNL1       -0.1679
     19 N          61.0754   88.3194    9.6061 N.ar    1  UNL1       -0.2526
     20 C          61.0883   89.8184    9.5517 C.3     1  UNL1        0.1273
     21 C          61.9119   90.5975   10.5339 C.3     1  UNL1        0.0314
     22 C          62.7226   89.8777   11.5704 C.3     1  UNL1        0.0597
     23 H          63.4007   86.7018   12.5584 H       1  UNL1        0.2108
@<TRIPOS>BOND
     1    14    13    1
     2    14    15    1
     3    15    16   ar
     4    16    17   ar
     5    17    18   ar
     6    18    19   ar
     7    19    20    1
     8    20    21    1
     9    22    21    1
    10    22     1    1
    11     1     2    1
    12     2     3   ar
    13     3     4   ar
    14     4     5   ar
    15     5     6   ar
    16     6     7   ar
    17     7     8    1
    18     8     9   ar
    19     9    10   ar
    20    10    11   ar
    21    11    12   ar
    22    22    14    1
    23     1    12    1
    24    19    15   ar
    25     7     2   ar
    26    12     8   ar
    27    13    23    1
@<TRIPOS>MOLECULE
*****
 23 27 0 0 0
SMALL
GASTEIGER

@<TRIPOS>ATOM
      1 C          62.7786   88.9330   12.1188 C.3     1  UNL1        0.1122
      2 C          62.8756   87.4387   12.2074 C.ar    1  UNL1       -0.0002
      3 C          63.7273   86.5364   13.0503 C.ar    1  UNL1       -0.0024
      4 C          63.6020   85.0476   12.9176 C.ar    1  UNL1       -0.0003
      5 C          62.6251   84.4611   11.9421 C.ar    1  UNL1        0.0000
      6 C          61.7735   85.3633   11.0992 C.ar    1  UNL1        0.0012
      7 C          61.8987   86.8522   11.2319 C.ar    1  UNL1        0.0152
      8 C          61.1979   87.9839   10.5404 C.ar    1  UNL1        0.0804
      9 C          60.1610   88.3209    9.5101 C.ar    1  UNL1        0.1177
     10 N          60.0641   89.8152    9.4216 N.ar    1  UNL1       -0.2223
     11 C          61.0410   90.4017   10.3972 C.ar    1  UNL1        0.1788
     12 N          61.7417   89.2699   11.0886 N.ar    1  UNL1       -0.3069
     13 O          64.2319   91.1636   10.7359 O.3     1  UNL1       -0.3784
     14 C          64.3048   91.0327   12.2284 C.3     1  UNL1        0.1519
     15 C          65.1043   92.0172   13.0295 C.ar    1  UNL1        0.0839
     16 C          65.9198   93.2105   12.6284 C.ar    1  UNL1        0.0392
     17 C          66.4966   93.8172   13.8731 C.ar    1  UNL1        0.1214
     18 N          66.0376   92.9988   15.0433 N.ar    1  UNL1       -0.1679
     19 N          65.1771   91.8863   14.5220 N.ar    1  UNL1       -0.2526
     20 C          64.4505   90.7710   15.2134 C.3     1  UNL1        0.1273
     21 C          63.6510   89.7866   14.4123 C.3     1  UNL1        0.0314
     22 C          63.5781   89.9174   12.9199 C.3     1  UNL1        0.0597
     23 H          64.7535   91.9309   10.4528 H       1  UNL1        0.2108
@<TRIPOS>BOND
     1    14    13    1
     2    14    15    1
     3    15    16   ar
     4    16    17   ar
     5    17    18   ar
     6    18    19   ar
     7    19    20    1
     8    20    21    1
     9    22    21    1
    10    22     1    1
    11     1     2    1
    12     2     3   ar
    13     3     4   ar
    14     4     5   ar
    15     5     6   ar
    16     6     7   ar
    17     7     8    1
    18     8     9   ar
    19     9    10   ar
    20    10    11   ar
    21    11    12   ar
    22    22    14    1
    23     1    12    1
    24    19    15   ar
    25     7     2   ar
    26    12     8   ar
    27    13    23    1
@<TRIPOS>MOLECULE
*****
 23 27 0 0 0
SMALL
GASTEIGER

@<TRIPOS>ATOM
      1 C          64.5283   90.1909   13.7633 C.3     1  UNL1        0.1122
      2 C          63.9595   90.4891   12.4077 C.ar    1  UNL1       -0.0002
      3 C          62.9784   89.7506   11.5463 C.ar    1  UNL1       -0.0024
      4 C          62.5900   90.3048   10.2077 C.ar    1  UNL1       -0.0003
      5 C          63.1827   91.5975    9.7305 C.ar    1  UNL1        0.0000
      6 C          64.1637   92.3360   10.5919 C.ar    1  UNL1        0.0012
      7 C          64.5521   91.7818   11.9305 C.ar    1  UNL1        0.0152
      8 C          65.4873   92.2824   12.9911 C.ar    1  UNL1        0.0804
      9 C          66.4316   93.3908   13.3517 C.ar    1  UNL1        0.1177
     10 N          67.0004   93.0925   14.7072 N.ar    1  UNL1       -0.2223
     11 C          66.4077   91.7998   15.1845 C.ar    1  UNL1        0.1788
     12 N          65.4726   91.2992   14.1238 N.ar    1  UNL1       -0.3069
     13 O          63.3041   90.5571   16.4776 O.3     1  UNL1       -0.3784
     14 C          63.5968   89.1775   15.9668 C.3     1  UNL1        0.1519
     15 C          63.2775   87.9809   16.8132 C.ar    1  UNL1        0.0839
     16 C          62.6756   87.8508   18.1809 C.ar    1  UNL1        0.0392
     17 C          62.5963   86.3907   18.5155 C.ar    1  UNL1        0.1214
     18 N          63.1492   85.6185   17.3545 N.ar    1  UNL1       -0.1679
     19 N          63.5702   86.6013   16.3024 N.ar    1  UNL1       -0.2526
     20 C          64.1823   86.4182   14.9453 C.3     1  UNL1        0.1273
     21 C          64.5017   87.6147   14.0989 C.3     1  UNL1        0.0314
     22 C          64.2090   88.9943   14.6096 C.3     1  UNL1        0.0597
     23 H          62.9131   90.4978   17.3633 H       1  UNL1        0.2108
@<TRIPOS>BOND
     1    14    13    1
     2    14    15    1
     3    15    16   ar
     4    16    17   ar
     5    17    18   ar
     6    18    19   ar
     7    19    20    1
     8    20    21    1
     9    22    21    1
    10    22     1    1
    11     1     2    1
    12     2     3   ar
    13     3     4   ar
    14     4     5   ar
    15     5     6   ar
    16     6     7   ar
    17     7     8    1
    18     8     9   ar
    19     9    10   ar
    20    10    11   ar
    21    11    12   ar
    22    22    14    1
    23     1    12    1
    24    19    15   ar
    25     7     2   ar
    26    12     8   ar
    27    13    23    1
@<TRIPOS>MOLECULE
*****
 23 27 0 0 0
SMALL
GASTEIGER

@<TRIPOS>ATOM
      1 C          63.4212   90.1435   12.2745 C.3     1  UNL1        0.1122
      2 C          63.4836   90.1952   13.7723 C.ar    1  UNL1       -0.0002
      3 C          62.8547   89.3413   14.8331 C.ar    1  UNL1       -0.0024
      4 C          63.1033   89.6404   16.2817 C.ar    1  UNL1       -0.0003
      5 C          63.9809   90.7934   16.6696 C.ar    1  UNL1        0.0000
      6 C          64.6098   91.6473   15.6088 C.ar    1  UNL1        0.0012
      7 C          64.3611   91.3482   14.1602 C.ar    1  UNL1        0.0152
      8 C          64.8411   92.0091   12.9021 C.ar    1  UNL1        0.0804
      9 C          65.6802   93.1302   12.3642 C.ar    1  UNL1        0.1177
     10 N          65.6178   93.0785   10.8664 N.ar    1  UNL1       -0.2223
     11 C          64.7402   91.9255   10.4785 C.ar    1  UNL1        0.1788
     12 N          64.2602   91.2646   11.7366 N.ar    1  UNL1       -0.3069
     13 O          61.5222   91.0854   10.1515 O.3     1  UNL1       -0.3784
     14 C          61.7049   89.6169   10.3964 C.3     1  UNL1        0.1519
     15 C          60.9381   88.6193    9.5798 C.ar    1  UNL1        0.0839
     16 C          59.9393   88.7839    8.4729 C.ar    1  UNL1        0.0392
     17 C          59.5046   87.4171    8.0337 C.ar    1  UNL1        0.1214
     18 N          60.2349   86.4078    8.8691 N.ar    1  UNL1       -0.1679
     19 N          61.1208   87.1507    9.8246 N.ar    1  UNL1       -0.2526
     20 C          62.0703   86.6798   10.8861 C.3     1  UNL1        0.1273
     21 C          62.8371   87.6774   11.7027 C.3     1  UNL1        0.0314
     22 C          62.6544   89.1459   11.4579 C.3     1  UNL1        0.0597
     23 H          60.8787   91.2166    9.4377 H       1  UNL1        0.2108
@<TRIPOS>BOND
     1    14    13    1
     2    14    15    1
     3    15    16   ar
     4    16    17   ar
     5    17    18   ar
     6    18    19   ar
     7    19    20    1
     8    20    21    1
     9    22    21    1
    10    22     1    1
    11     1     2    1
    12     2     3   ar
    13     3     4   ar
    14     4     5   ar
    15     5     6   ar
    16     6     7   ar
    17     7     8    1
    18     8     9   ar
    19     9    10   ar
    20    10    11   ar
    21    11    12   ar
    22    22    14    1
    23     1    12    1
    24    19    15   ar
    25     7     2   ar
    26    12     8   ar
    27    13    23    1
