@<TRIPOS>MOLECULE
*****
 27 29 0 0 0
SMALL
GASTEIGER

@<TRIPOS>ATOM
      1 C          61.3747   88.9783   10.1218 C.3     1  UNL1        0.0047
      2 C          61.8228   90.3149    9.6094 C.3     1  UNL1        0.0050
      3 C          62.8563   91.0989   10.3625 C.3     1  UNL1        0.0260
      4 C          63.4418   90.5462   11.6281 C.ar    1  UNL1       -0.0264
      5 C          64.4753   91.3302   12.3812 C.ar    1  UNL1       -0.0089
      6 C          65.0608   90.7775   13.6468 C.ar    1  UNL1       -0.0228
      7 C          64.6127   89.4408   14.1593 C.ar    1  UNL1       -0.0046
      8 C          63.5792   88.6568   13.4061 C.ar    1  UNL1       -0.0049
      9 C          62.9937   89.2096   12.1405 C.ar    1  UNL1       -0.0262
     10 C          61.9602   88.4256   11.3874 C.3     1  UNL1        0.0260
     11 C          66.0943   91.5614   14.4000 C.3     1  UNL1        0.0237
     12 C          65.8669   92.3305   15.6676 C.3     1  UNL1        0.0058
     13 C          67.1688   92.9583   16.0688 C.3     1  UNL1        0.0170
     14 C          68.2008   92.5773   15.0491 C.3     1  UNL1        0.0666
     15 N          69.4252   92.3676   14.2083 N.3     1  UNL1       -0.3212
     16 C          67.5368   91.7140   14.0177 C.3     1  UNL1        0.0210
     17 H          70.2133   92.8624   14.6259 H       1  UNL1        0.1188
     18 H          69.2577   92.7266   13.2684 H       1  UNL1        0.1188
     19 C          69.1207   93.3968   15.9047 C.3     1  UNL1        0.1511
     20 O          68.7356   94.7925   16.2968 O.3     1  UNL1       -0.3806
     21 H          68.7061   95.3539   15.5063 H       1  UNL1        0.2105
     22 C          60.3412   88.1944    9.3686 C.3     1  UNL1        0.0003
     23 C          60.4430   86.6999    9.2908 C.3     1  UNL1        0.0000
     24 C          61.3768   86.0620    8.3054 C.3     1  UNL1        0.0000
     25 C          62.8043   85.8009    8.6855 C.3     1  UNL1        0.0000
     26 C          62.7838   84.6408   11.0101 C.3     1  UNL1        0.0000
     27 C          63.1463   84.6272    9.5547 C.3     1  UNL1        0.0000
@<TRIPOS>BOND
     1    26    27    1
     2    27    25    1
     3    25    24    1
     4    24    23    1
     5    23    22    1
     6     1    22    1
     7     1     2    1
     8     2     3    1
     9     3     4    1
    10     4     5   ar
    11     5     6   ar
    12    11     6    1
    13    11    12    1
    14    12    13    1
    15    13    14    1
    16    14    15    1
    17    14    19    1
    18    19    20    1
    19    14    16    1
    20     6     7   ar
    21     7     8   ar
    22     8     9   ar
    23     9    10    1
    24    10     1    1
    25     9     4   ar
    26    16    11    1
    27    15    17    1
    28    15    18    1
    29    20    21    1
@<TRIPOS>MOLECULE
*****
 27 29 0 0 0
SMALL
GASTEIGER

@<TRIPOS>ATOM
      1 C          60.4650   87.3089    9.3841 C.3     1  UNL1        0.0047
      2 C          60.9231   86.5488   10.5934 C.3     1  UNL1        0.0050
      3 C          61.8610   87.1911   11.5721 C.3     1  UNL1        0.0260
      4 C          62.3409   88.5934   11.3415 C.ar    1  UNL1       -0.0264
      5 C          63.2788   89.2356   12.3202 C.ar    1  UNL1       -0.0089
      6 C          63.7586   90.6379   12.0896 C.ar    1  UNL1       -0.0228
      7 C          63.3006   91.3981   10.8803 C.ar    1  UNL1       -0.0046
      8 C          62.3627   90.7558    9.9016 C.ar    1  UNL1       -0.0049
      9 C          61.8828   89.3534   10.1322 C.ar    1  UNL1       -0.0262
     10 C          60.9449   88.7112    9.1535 C.3     1  UNL1        0.0260
     11 C          64.6966   91.2801   13.0683 C.3     1  UNL1        0.0237
     12 C          64.9941   90.7918   14.4550 C.3     1  UNL1        0.0058
     13 C          65.9830   91.7333   15.0759 C.3     1  UNL1        0.0170
     14 C          66.2968   92.8036   14.0729 C.3     1  UNL1        0.0666
     15 N          66.7986   93.9841   13.2952 N.3     1  UNL1       -0.3212
     16 C          65.5017   92.5236   12.8321 C.3     1  UNL1        0.0210
     17 H          67.4588   94.5117   13.8663 H       1  UNL1        0.1188
     18 H          66.0130   94.5834   13.0422 H       1  UNL1        0.1188
     19 C          67.1967   93.3304   15.1510 C.3     1  UNL1        0.1511
     20 O          66.8281   93.1442   16.5931 O.3     1  UNL1       -0.3806
     21 H          66.0250   93.6515   16.7897 H       1  UNL1        0.2105
     22 C          59.5271   86.6667    8.4054 C.3     1  UNL1        0.0003
     23 C          60.0543   86.1094    7.1165 C.3     1  UNL1        0.0000
     24 C          60.8848   84.8603    7.1234 C.3     1  UNL1        0.0000
     25 C          62.3796   84.9532    7.0391 C.3     1  UNL1        0.0000
     26 C          63.4373   84.2818    9.3152 C.3     1  UNL1        0.0000
     27 C          63.1786   85.3126    8.2567 C.3     1  UNL1        0.0000
@<TRIPOS>BOND
     1    26    27    1
     2    27    25    1
     3    25    24    1
     4    24    23    1
     5    23    22    1
     6     1    22    1
     7     1     2    1
     8     2     3    1
     9     3     4    1
    10     4     5   ar
    11     5     6   ar
    12    11     6    1
    13    11    12    1
    14    12    13    1
    15    13    14    1
    16    14    15    1
    17    14    19    1
    18    19    20    1
    19    14    16    1
    20     6     7   ar
    21     7     8   ar
    22     8     9   ar
    23     9    10    1
    24    10     1    1
    25     9     4   ar
    26    16    11    1
    27    15    17    1
    28    15    18    1
    29    20    21    1
@<TRIPOS>MOLECULE
*****
 27 29 0 0 0
SMALL
GASTEIGER

@<TRIPOS>ATOM
      1 C          64.0337   90.2211   13.3887 C.3     1  UNL1        0.0047
      2 C          64.6242   89.4530   14.5337 C.3     1  UNL1        0.0050
      3 C          64.4995   87.9588   14.5783 C.3     1  UNL1        0.0260
      4 C          63.7841   87.2328   13.4778 C.ar    1  UNL1       -0.0264
      5 C          63.6594   85.7387   13.5223 C.ar    1  UNL1       -0.0089
      6 C          62.9440   85.0127   12.4218 C.ar    1  UNL1       -0.0228
      7 C          62.3534   85.7808   11.2767 C.ar    1  UNL1       -0.0046
      8 C          62.4782   87.2749   11.2321 C.ar    1  UNL1       -0.0049
      9 C          63.1936   88.0009   12.3327 C.ar    1  UNL1       -0.0262
     10 C          63.3184   89.4951   12.2882 C.3     1  UNL1        0.0260
     11 C          62.8193   83.5185   12.4663 C.3     1  UNL1        0.0237
     12 C          63.0748   82.5780   11.3261 C.3     1  UNL1        0.0058
     13 C          62.8305   81.1808   11.8140 C.3     1  UNL1        0.0170
     14 C          62.4240   81.2577   13.2558 C.3     1  UNL1        0.0666
     15 N          62.0005   81.0224   14.6755 N.3     1  UNL1       -0.3212
     16 C          62.4171   82.7025   13.6591 C.3     1  UNL1        0.0210
     17 H          61.8804   80.0218   14.8330 H       1  UNL1        0.1188
     18 H          61.1178   81.5026   14.8510 H       1  UNL1        0.1188
     19 C          62.3424   79.7638   13.1494 C.3     1  UNL1        0.1511
     20 O          62.5969   79.0907   11.8332 O.3     1  UNL1       -0.3806
     21 H          61.9005   79.3365   11.2043 H       1  UNL1        0.2105
     22 C          64.1585   91.7152   13.3441 C.3     1  UNL1        0.0003
     23 C          65.2068   92.3550   12.4829 C.3     1  UNL1        0.0000
     24 C          66.4473   92.9216   13.1076 C.3     1  UNL1        0.0000
     25 C          67.5029   92.0020   13.6463 C.3     1  UNL1        0.0000
     26 C          67.0121   92.7307   16.0913 C.3     1  UNL1        0.0000
     27 C          67.5909   91.7438   15.1213 C.3     1  UNL1        0.0000
@<TRIPOS>BOND
     1    26    27    1
     2    27    25    1
     3    25    24    1
     4    24    23    1
     5    23    22    1
     6     1    22    1
     7     1     2    1
     8     2     3    1
     9     3     4    1
    10     4     5   ar
    11     5     6   ar
    12    11     6    1
    13    11    12    1
    14    12    13    1
    15    13    14    1
    16    14    15    1
    17    14    19    1
    18    19    20    1
    19    14    16    1
    20     6     7   ar
    21     7     8   ar
    22     8     9   ar
    23     9    10    1
    24    10     1    1
    25     9     4   ar
    26    16    11    1
    27    15    17    1
    28    15    18    1
    29    20    21    1
@<TRIPOS>MOLECULE
*****
 27 29 0 0 0
SMALL
GASTEIGER

@<TRIPOS>ATOM
      1 C          61.0813   89.2089    9.8252 C.3     1  UNL1        0.0047
      2 C          61.1641   88.4410   11.1110 C.3     1  UNL1        0.0050
      3 C          62.1732   88.8269   12.1515 C.3     1  UNL1        0.0260
      4 C          63.0996   89.9808   11.9062 C.ar    1  UNL1       -0.0264
      5 C          64.1088   90.3667   12.9467 C.ar    1  UNL1       -0.0089
      6 C          65.0352   91.5206   12.7014 C.ar    1  UNL1       -0.0228
      7 C          64.9525   92.2887   11.4155 C.ar    1  UNL1       -0.0046
      8 C          63.9434   91.9027   10.3750 C.ar    1  UNL1       -0.0049
      9 C          63.0169   90.7488   10.6204 C.ar    1  UNL1       -0.0262
     10 C          62.0078   90.3628    9.5799 C.3     1  UNL1        0.0260
     11 C          66.0444   91.9066   13.7419 C.3     1  UNL1        0.0237
     12 C          65.7438   92.3075   15.1558 C.3     1  UNL1        0.0058
     13 C          67.0449   92.6081   15.8390 C.3     1  UNL1        0.0170
     14 C          68.1497   92.3929   14.8473 C.3     1  UNL1        0.0666
     15 N          69.4401   92.2626   14.0937 N.3     1  UNL1       -0.3212
     16 C          67.5313   91.9593   13.5513 C.3     1  UNL1        0.0210
     17 H          70.2182   92.5038   14.7075 H       1  UNL1        0.1188
     18 H          69.4310   92.8936   13.2923 H       1  UNL1        0.1188
     19 C          69.0378   92.7992   15.9858 C.3     1  UNL1        0.1511
     20 O          69.3449   94.2492   16.2168 O.3     1  UNL1       -0.3806
     21 H          69.8662   94.5916   15.4740 H       1  UNL1        0.2105
     22 C          60.0722   88.8230    8.7847 C.3     1  UNL1        0.0003
     23 C          59.4868   87.4420    8.7835 C.3     1  UNL1        0.0000
     24 C          59.7054   86.5357    7.6083 C.3     1  UNL1        0.0000
     25 C          60.9240   85.6629    7.5508 C.3     1  UNL1        0.0000
     26 C          63.2227   84.9503    8.5296 C.3     1  UNL1        0.0000
     27 C          62.0608   85.8985    8.5006 C.3     1  UNL1        0.0000
@<TRIPOS>BOND
     1    26    27    1
     2    27    25    1
     3    25    24    1
     4    24    23    1
     5    23    22    1
     6     1    22    1
     7     1     2    1
     8     2     3    1
     9     3     4    1
    10     4     5   ar
    11     5     6   ar
    12    11     6    1
    13    11    12    1
    14    12    13    1
    15    13    14    1
    16    14    15    1
    17    14    19    1
    18    19    20    1
    19    14    16    1
    20     6     7   ar
    21     7     8   ar
    22     8     9   ar
    23     9    10    1
    24    10     1    1
    25     9     4   ar
    26    16    11    1
    27    15    17    1
    28    15    18    1
    29    20    21    1
@<TRIPOS>MOLECULE
*****
 27 29 0 0 0
SMALL
GASTEIGER

@<TRIPOS>ATOM
      1 C          61.2557   86.9500    9.7212 C.3     1  UNL1        0.0047
      2 C          61.7189   86.1941   10.9312 C.3     1  UNL1        0.0050
      3 C          62.5333   86.8879   11.9826 C.3     1  UNL1        0.0260
      4 C          62.8845   88.3376   11.8240 C.ar    1  UNL1       -0.0264
      5 C          63.6988   89.0314   12.8754 C.ar    1  UNL1       -0.0089
      6 C          64.0500   90.4810   12.7169 C.ar    1  UNL1       -0.0228
      7 C          63.5868   91.2369   11.5068 C.ar    1  UNL1       -0.0046
      8 C          62.7724   90.5431   10.4554 C.ar    1  UNL1       -0.0049
      9 C          62.4212   89.0934   10.6141 C.ar    1  UNL1       -0.0262
     10 C          61.6069   88.3996    9.5627 C.3     1  UNL1        0.0260
     11 C          64.8644   91.1748   13.7683 C.3     1  UNL1        0.0237
     12 C          64.5297   91.2620   15.2278 C.3     1  UNL1        0.0058
     13 C          65.6149   92.0443   15.9063 C.3     1  UNL1        0.0170
     14 C          66.6203   92.4406   14.8661 C.3     1  UNL1        0.0666
     15 N          67.7730   92.9725   14.0671 N.3     1  UNL1       -0.3212
     16 C          66.1565   91.9033   13.5446 C.3     1  UNL1        0.0210
     17 H          68.4110   93.4754   14.6839 H       1  UNL1        0.1188
     18 H          67.4245   93.6068   13.3483 H       1  UNL1        0.1188
     19 C          67.3250   93.0891   16.0204 C.3     1  UNL1        0.1511
     20 O          68.7698   93.4732   15.8970 O.3     1  UNL1       -0.3806
     21 H          69.3105   92.6731   15.8056 H       1  UNL1        0.2105
     22 C          60.4413   86.2562    8.6698 C.3     1  UNL1        0.0003
     23 C          59.1089   86.8131    8.2644 C.3     1  UNL1        0.0000
     24 C          59.0000   87.6901    7.0524 C.3     1  UNL1        0.0000
     25 C          59.3067   89.1548    7.1565 C.3     1  UNL1        0.0000
     26 C          58.4028   90.9091    5.4667 C.3     1  UNL1        0.0000
     27 C          59.4872   89.9735    5.9127 C.3     1  UNL1        0.0000
@<TRIPOS>BOND
     1    26    27    1
     2    27    25    1
     3    25    24    1
     4    24    23    1
     5    23    22    1
     6     1    22    1
     7     1     2    1
     8     2     3    1
     9     3     4    1
    10     4     5   ar
    11     5     6   ar
    12    11     6    1
    13    11    12    1
    14    12    13    1
    15    13    14    1
    16    14    15    1
    17    14    19    1
    18    19    20    1
    19    14    16    1
    20     6     7   ar
    21     7     8   ar
    22     8     9   ar
    23     9    10    1
    24    10     1    1
    25     9     4   ar
    26    16    11    1
    27    15    17    1
    28    15    18    1
    29    20    21    1
@<TRIPOS>MOLECULE
*****
 27 29 0 0 0
SMALL
GASTEIGER

@<TRIPOS>ATOM
      1 C          63.0567   82.9894   12.5251 C.3     1  UNL1        0.0047
      2 C          63.7067   82.9555   13.8765 C.3     1  UNL1        0.0050
      3 C          64.0771   84.2367   14.5630 C.3     1  UNL1        0.0260
      4 C          63.7976   85.5518   13.8980 C.ar    1  UNL1       -0.0264
      5 C          64.1680   86.8331   14.5845 C.ar    1  UNL1       -0.0089
      6 C          63.8884   88.1482   13.9196 C.ar    1  UNL1       -0.0228
      7 C          63.2384   88.1822   12.5681 C.ar    1  UNL1       -0.0046
      8 C          62.8679   86.9010   11.8817 C.ar    1  UNL1       -0.0049
      9 C          63.1475   85.5858   12.5467 C.ar    1  UNL1       -0.0262
     10 C          62.7771   84.3045   11.8602 C.3     1  UNL1        0.0260
     11 C          64.2588   89.4295   14.6060 C.3     1  UNL1        0.0237
     12 C          63.5571   90.0319   15.7870 C.3     1  UNL1        0.0058
     13 C          64.2606   91.3080   16.1429 C.3     1  UNL1        0.0170
     14 C          65.3972   91.4942   15.1819 C.3     1  UNL1        0.0666
     15 N          66.5860   91.9428   14.3845 N.3     1  UNL1       -0.3212
     16 C          65.3961   90.3333   14.2320 C.3     1  UNL1        0.0210
     17 H          66.9362   92.8231   14.7623 H       1  UNL1        0.1188
     18 H          66.3119   92.0757   13.4110 H       1  UNL1        0.1188
     19 C          65.6467   92.7489   15.9650 C.3     1  UNL1        0.1511
     20 O          64.8360   93.0403   17.1930 O.3     1  UNL1       -0.3806
     21 H          63.9105   93.1869   16.9421 H       1  UNL1        0.2105
     22 C          62.6862   81.7081   11.8387 C.3     1  UNL1        0.0003
     23 C          62.8685   80.3982   12.5464 C.3     1  UNL1        0.0000
     24 C          61.7985   79.8866   13.4646 C.3     1  UNL1        0.0000
     25 C          60.8448   80.8459   14.1130 C.3     1  UNL1        0.0000
     26 C          58.8960   79.1985   14.6009 C.3     1  UNL1        0.0000
     27 C          59.3761   80.5420   14.1377 C.3     1  UNL1        0.0000
@<TRIPOS>BOND
     1    26    27    1
     2    27    25    1
     3    25    24    1
     4    24    23    1
     5    23    22    1
     6     1    22    1
     7     1     2    1
     8     2     3    1
     9     3     4    1
    10     4     5   ar
    11     5     6   ar
    12    11     6    1
    13    11    12    1
    14    12    13    1
    15    13    14    1
    16    14    15    1
    17    14    19    1
    18    19    20    1
    19    14    16    1
    20     6     7   ar
    21     7     8   ar
    22     8     9   ar
    23     9    10    1
    24    10     1    1
    25     9     4   ar
    26    16    11    1
    27    15    17    1
    28    15    18    1
    29    20    21    1
@<TRIPOS>MOLECULE
*****
 27 29 0 0 0
SMALL
GASTEIGER

@<TRIPOS>ATOM
      1 C          62.9508   83.8255   13.2074 C.3     1  UNL1        0.0047
      2 C          63.7550   83.8064   14.4734 C.3     1  UNL1        0.0050
      3 C          64.3148   85.0836   15.0258 C.3     1  UNL1        0.0260
      4 C          64.0706   86.3801   14.3120 C.ar    1  UNL1       -0.0264
      5 C          64.6305   87.6574   14.8644 C.ar    1  UNL1       -0.0089
      6 C          64.3862   88.9539   14.1507 C.ar    1  UNL1       -0.0228
      7 C          63.5821   88.9731   12.8845 C.ar    1  UNL1       -0.0046
      8 C          63.0222   87.6958   12.3322 C.ar    1  UNL1       -0.0049
      9 C          63.2665   86.3993   13.0460 C.ar    1  UNL1       -0.0262
     10 C          62.7066   85.1220   12.4936 C.3     1  UNL1        0.0260
     11 C          64.9461   90.2311   14.7030 C.3     1  UNL1        0.0237
     12 C          64.2664   91.1407   15.6832 C.3     1  UNL1        0.0058
     13 C          65.1842   92.2948   15.9582 C.3     1  UNL1        0.0170
     14 C          66.4312   92.0986   15.1479 C.3     1  UNL1        0.0666
     15 N          67.7674   92.1722   14.4701 N.3     1  UNL1       -0.3212
     16 C          66.2841   90.8232   14.3721 C.3     1  UNL1        0.0210
     17 H          68.2552   93.0160   14.7708 H       1  UNL1        0.1188
     18 H          67.6348   92.1982   13.4591 H       1  UNL1        0.1188
     19 C          66.8576   93.3893   15.7819 C.3     1  UNL1        0.1511
     20 O          68.3070   93.7760   15.7942 O.3     1  UNL1       -0.3806
     21 H          68.8034   93.1520   16.3465 H       1  UNL1        0.2105
     22 C          62.3910   82.5483   12.6550 C.3     1  UNL1        0.0003
     23 C          62.9838   81.9428   11.4173 C.3     1  UNL1        0.0000
     24 C          64.2781   82.4687   10.8711 C.3     1  UNL1        0.0000
     25 C          64.2764   83.3553    9.6611 C.3     1  UNL1        0.0000
     26 C          63.0581   85.1217    8.1965 C.3     1  UNL1        0.0000
     27 C          63.2245   84.4135    9.5082 C.3     1  UNL1        0.0000
@<TRIPOS>BOND
     1    26    27    1
     2    27    25    1
     3    25    24    1
     4    24    23    1
     5    23    22    1
     6     1    22    1
     7     1     2    1
     8     2     3    1
     9     3     4    1
    10     4     5   ar
    11     5     6   ar
    12    11     6    1
    13    11    12    1
    14    12    13    1
    15    13    14    1
    16    14    15    1
    17    14    19    1
    18    19    20    1
    19    14    16    1
    20     6     7   ar
    21     7     8   ar
    22     8     9   ar
    23     9    10    1
    24    10     1    1
    25     9     4   ar
    26    16    11    1
    27    15    17    1
    28    15    18    1
    29    20    21    1
@<TRIPOS>MOLECULE
*****
 27 29 0 0 0
SMALL
GASTEIGER

@<TRIPOS>ATOM
      1 C          64.0027   90.4685   12.9288 C.3     1  UNL1        0.0047
      2 C          64.5903   89.8661   14.1705 C.3     1  UNL1        0.0050
      3 C          64.4562   88.3941   14.4259 C.3     1  UNL1        0.0260
      4 C          63.7344   87.5245   13.4397 C.ar    1  UNL1       -0.0264
      5 C          63.6003   86.0525   13.6951 C.ar    1  UNL1       -0.0089
      6 C          62.8785   85.1829   12.7088 C.ar    1  UNL1       -0.0228
      7 C          62.2908   85.7852   11.4671 C.ar    1  UNL1       -0.0046
      8 C          62.4250   87.2572   11.2117 C.ar    1  UNL1       -0.0049
      9 C          63.1468   88.1269   12.1980 C.ar    1  UNL1       -0.0262
     10 C          63.2809   89.5989   11.9426 C.3     1  UNL1        0.0260
     11 C          62.7444   83.7109   12.9642 C.3     1  UNL1        0.0237
     12 C          62.4639   83.0680   14.2901 C.3     1  UNL1        0.0058
     13 C          62.4134   81.5831   14.0840 C.3     1  UNL1        0.0170
     14 C          62.6626   81.3082   12.6306 C.3     1  UNL1        0.0666
     15 N          62.8786   80.7333   11.2620 N.3     1  UNL1       -0.3212
     16 C          62.8672   82.6232   11.9385 C.3     1  UNL1        0.0210
     17 H          62.8102   79.7166   11.3056 H       1  UNL1        0.1188
     18 H          63.8040   80.9977   10.9243 H       1  UNL1        0.1188
     19 C          62.5032   79.8731   13.0365 C.3     1  UNL1        0.1511
     20 O          62.7546   79.4632   14.4574 O.3     1  UNL1       -0.3806
     21 H          63.6929   79.5885   14.6689 H       1  UNL1        0.2105
     22 C          64.1368   91.9405   12.6734 C.3     1  UNL1        0.0003
     23 C          65.0072   92.4314   11.5548 C.3     1  UNL1        0.0000
     24 C          66.1887   93.3063   11.8523 C.3     1  UNL1        0.0000
     25 C          66.8617   94.0603   10.7438 C.3     1  UNL1        0.0000
     26 C          68.4341   92.2942    9.6675 C.3     1  UNL1        0.0000
     27 C          67.3563   93.3285    9.5314 C.3     1  UNL1        0.0000
@<TRIPOS>BOND
     1    26    27    1
     2    27    25    1
     3    25    24    1
     4    24    23    1
     5    23    22    1
     6     1    22    1
     7     1     2    1
     8     2     3    1
     9     3     4    1
    10     4     5   ar
    11     5     6   ar
    12    11     6    1
    13    11    12    1
    14    12    13    1
    15    13    14    1
    16    14    15    1
    17    14    19    1
    18    19    20    1
    19    14    16    1
    20     6     7   ar
    21     7     8   ar
    22     8     9   ar
    23     9    10    1
    24    10     1    1
    25     9     4   ar
    26    16    11    1
    27    15    17    1
    28    15    18    1
    29    20    21    1
@<TRIPOS>MOLECULE
*****
 27 29 0 0 0
SMALL
GASTEIGER

@<TRIPOS>ATOM
      1 C          59.5354   89.2312    7.3142 C.3     1  UNL1        0.0047
      2 C          59.7614   89.9838    8.5918 C.3     1  UNL1        0.0050
      3 C          60.4366   89.3104    9.7497 C.3     1  UNL1        0.0260
      4 C          60.8857   87.8842    9.6299 C.ar    1  UNL1       -0.0264
      5 C          61.5609   87.2107   10.7877 C.ar    1  UNL1       -0.0089
      6 C          62.0100   85.7846   10.6679 C.ar    1  UNL1       -0.0228
      7 C          61.7840   85.0319    9.3902 C.ar    1  UNL1       -0.0046
      8 C          61.1089   85.7054    8.2324 C.ar    1  UNL1       -0.0049
      9 C          60.6597   87.1316    8.3522 C.ar    1  UNL1       -0.0262
     10 C          59.9846   87.8051    7.1944 C.3     1  UNL1        0.0260
     11 C          62.6852   85.1111   11.8257 C.3     1  UNL1        0.0237
     12 C          62.9667   83.6430   11.9498 C.3     1  UNL1        0.0058
     13 C          63.6529   83.4120   13.2636 C.3     1  UNL1        0.0170
     14 C          63.7954   84.7374   13.9514 C.3     1  UNL1        0.0666
     15 N          64.0752   85.8939   14.8649 N.3     1  UNL1       -0.3212
     16 C          63.1974   85.7876   13.0628 C.3     1  UNL1        0.0210
     17 H          64.5430   85.5570   15.7064 H       1  UNL1        0.1188
     18 H          63.1970   86.3447   15.1215 H       1  UNL1        0.1188
     19 C          64.4520   83.9291   15.0309 C.3     1  UNL1        0.1511
     20 O          63.9378   82.5588   15.3596 O.3     1  UNL1       -0.3806
     21 H          63.0441   82.6290   15.7301 H       1  UNL1        0.2105
     22 C          58.8603   89.9047    6.1564 C.3     1  UNL1        0.0003
     23 C          59.6484   90.7977    5.2446 C.3     1  UNL1        0.0000
     24 C          58.9756   91.9479    4.5557 C.3     1  UNL1        0.0000
     25 C          59.7859   92.9116    3.7404 C.3     1  UNL1        0.0000
     26 C          61.0144   92.8469    1.4521 C.3     1  UNL1        0.0000
     27 C          59.7396   92.8507    2.2424 C.3     1  UNL1        0.0000
@<TRIPOS>BOND
     1    26    27    1
     2    27    25    1
     3    25    24    1
     4    24    23    1
     5    23    22    1
     6     1    22    1
     7     1     2    1
     8     2     3    1
     9     3     4    1
    10     4     5   ar
    11     5     6   ar
    12    11     6    1
    13    11    12    1
    14    12    13    1
    15    13    14    1
    16    14    15    1
    17    14    19    1
    18    19    20    1
    19    14    16    1
    20     6     7   ar
    21     7     8   ar
    22     8     9   ar
    23     9    10    1
    24    10     1    1
    25     9     4   ar
    26    16    11    1
    27    15    17    1
    28    15    18    1
    29    20    21    1
