@<TRIPOS>MOLECULE
*****
 44 47 0 0 0
SMALL
GASTEIGER

@<TRIPOS>ATOM
      1 C          64.2610   88.0000   14.4705 C.3     1  UNL1        0.1245
      2 C          63.9234   90.2902   15.6499 C.2     1  UNL1        0.2492
      3 O          63.2347   91.1292   16.6851 O.2     1  UNL1       -0.2699
      4 N          63.5723   88.8390   15.5058 N.am    1  UNL1       -0.2735
      5 C          66.9165   93.0697   10.7435 C.ar    1  UNL1        0.2932
      6 N          67.8431   92.7741   11.8854 N.ar    1  UNL1       -0.1946
      7 C          67.0425   92.1268   12.9764 C.ar    1  UNL1        0.1202
      8 C          67.4242   91.6190   14.3352 C.ar    1  UNL1        0.0225
      9 C          66.3845   91.0068   15.2263 C.ar    1  UNL1        0.0063
     10 C          64.9631   90.9024   14.7586 C.ar    1  UNL1        0.0567
     11 C          64.5814   91.4102   13.3998 C.ar    1  UNL1        0.0437
     12 C          65.6211   92.0224   12.5087 C.ar    1  UNL1        0.1662
     13 O          65.5432   92.6051   11.1287 O.2     1  UNL1       -0.4237
     14 N          67.2964   93.7164    9.4445 N.pl3   1  UNL1       -0.2500
     15 C          68.2963   93.0561    8.5422 C.3     1  UNL1        0.1176
     16 C          66.6764   95.0233    9.0477 C.3     1  UNL1        0.1729
     17 C          65.5652   96.8552   11.1475 C.1     1  UNL1       -0.0124
     18 C          66.1208   95.9392   10.0976 C.1     1  UNL1       -0.0556
     19 C          62.5326   88.2267   16.3970 C.3     1  UNL1        0.0937
     20 C          62.8840   87.0539   17.2635 C.3     1  UNL1        0.0199
     21 C          63.3390   85.7688   16.6379 C.3     1  UNL1        0.0018
     22 C          62.7803   87.1662   18.7558 C.3     1  UNL1        0.0018
     23 C          63.5792   87.7085   13.1665 C.3     1  UNL1        0.1484
     24 O          63.3664   88.8085   12.1692 O.3     1  UNL1       -0.3810
     25 H          63.7255   89.6380   12.5212 H       1  UNL1        0.2105
     26 C          63.1103   86.3171   12.8599 C.3     1  UNL1        0.1075
     27 N          61.8537   86.1065   12.0682 N.am    1  UNL1       -0.2695
     28 C          61.9095   86.0645   10.5698 C.2     1  UNL1        0.4020
     29 O          63.2217   86.2331    9.8631 O.2     1  UNL1       -0.2264
     30 H          60.9924   85.9959   12.5320 H       1  UNL1        0.1528
     31 O          60.6529   85.8539    9.7782 O.3     1  UNL1       -0.4291
     32 C          59.7700   87.0207    9.4481 C.3     1  UNL1        0.2447
     33 C          59.9680   88.3326   10.1478 C.ar    1  UNL1        0.0714
     34 C          59.4923   88.6761   11.5284 C.ar    1  UNL1        0.1053
     35 N          59.9067   90.0871   11.8238 N.ar    1  UNL1       -0.2350
     36 C          60.6386   90.6157   10.6258 C.ar    1  UNL1        0.1343
     37 S          60.6764   89.5313    9.5900 S.2     1  UNL1       -0.0652
     38 C          63.8979   85.1363   13.3449 C.3     1  UNL1        0.0485
     39 C          63.3281   83.7540   13.2245 C.ar    1  UNL1       -0.0204
     40 C          62.5367   83.1679   14.3559 C.ar    1  UNL1       -0.0042
     41 C          61.9668   81.7855   14.2354 C.ar    1  UNL1       -0.0003
     42 C          62.1884   80.9894   12.9837 C.ar    1  UNL1       -0.0000
     43 C          62.9798   81.5755   11.8523 C.ar    1  UNL1       -0.0003
     44 C          63.5497   82.9578   11.9727 C.ar    1  UNL1       -0.0042
@<TRIPOS>BOND
     1    17    18    3
     2    18    16    1
     3    16    14    1
     4    14    15    1
     5    14     5    1
     6     5     6   ar
     7     6     7   ar
     8     7     8   ar
     9     8     9   ar
    10     9    10   ar
    11    10     2    1
    12     2     3    2
    13     2     4   am
    14     4    19    1
    15    19    20    1
    16    20    21    1
    17    20    22    1
    18     4     1    1
    19     1    23    1
    20    23    24    1
    21    23    26    1
    22    26    38    1
    23    38    39    1
    24    39    40   ar
    25    40    41   ar
    26    41    42   ar
    27    42    43   ar
    28    43    44   ar
    29    26    27    1
    30    27    28   am
    31    28    29    2
    32    28    31    1
    33    31    32    1
    34    32    33    1
    35    33    34   ar
    36    34    35   ar
    37    35    36   ar
    38    36    37   ar
    39    10    11   ar
    40    11    12   ar
    41    12    13   ar
    42    13     5   ar
    43    12     7   ar
    44    44    39   ar
    45    37    33   ar
    46    24    25    1
    47    27    30    1
@<TRIPOS>MOLECULE
*****
 44 47 0 0 0
SMALL
GASTEIGER

@<TRIPOS>ATOM
      1 C          62.6598   88.8950   11.7779 C.3     1  UNL1        0.1245
      2 C          60.9651   87.7803   10.1545 C.2     1  UNL1        0.2492
      3 O          59.7507   87.8738    9.2790 O.2     1  UNL1       -0.2699
      4 N          61.4454   88.9885   10.9024 N.am    1  UNL1       -0.2735
      5 C          63.3845   82.3060   12.3762 C.ar    1  UNL1        0.2932
      6 N          63.7858   82.5739   10.9559 N.ar    1  UNL1       -0.1946
      7 C          63.1676   83.8748   10.5370 C.ar    1  UNL1        0.1202
      8 C          63.2167   84.6404    9.2481 C.ar    1  UNL1        0.0225
      9 C          62.4826   85.9422    9.1206 C.ar    1  UNL1        0.0063
     10 C          61.6993   86.4784   10.2820 C.ar    1  UNL1        0.0567
     11 C          61.6501   85.7128   11.5709 C.ar    1  UNL1        0.0437
     12 C          62.3843   84.4110   11.6984 C.ar    1  UNL1        0.1662
     13 O          62.5184   83.4414   12.8351 O.2     1  UNL1       -0.4237
     14 N          63.7800   81.1124   13.1940 N.pl3   1  UNL1       -0.2500
     15 C          65.1488   81.0407   13.8031 C.3     1  UNL1        0.1176
     16 C          62.8067   79.9903   13.4027 C.3     1  UNL1        0.1729
     17 C          59.9679   80.5896   14.1658 C.1     1  UNL1       -0.0124
     18 C          61.3873   80.2899   13.7842 C.1     1  UNL1       -0.0556
     19 C          60.7112   90.2904   10.7748 C.3     1  UNL1        0.0937
     20 C          59.4183   90.4971   11.5067 C.3     1  UNL1        0.0199
     21 C          58.7423   91.8357   11.4717 C.3     1  UNL1        0.0018
     22 C          58.8013   89.3652   12.2737 C.3     1  UNL1        0.0018
     23 C          62.7644   89.7462   13.0086 C.3     1  UNL1        0.1484
     24 O          61.5395   90.0423   13.8221 O.3     1  UNL1       -0.3810
     25 H          60.7706   89.6111   13.4174 H       1  UNL1        0.2105
     26 C          64.0941   90.3012   13.4258 C.3     1  UNL1        0.1075
     27 N          64.7599   91.3577   12.5947 N.am    1  UNL1       -0.2695
     28 C          65.4224   92.5278   13.2593 C.2     1  UNL1        0.4020
     29 O          65.4192   92.6416   14.7550 O.2     1  UNL1       -0.2264
     30 H          64.7620   91.2830   11.6130 H       1  UNL1        0.1528
     31 O          66.0883   93.5843   12.4282 O.3     1  UNL1       -0.4291
     32 C          66.2510   93.3842   10.9506 C.3     1  UNL1        0.2447
     33 C          66.6150   94.5444   10.0723 C.ar    1  UNL1        0.0714
     34 C          67.3874   94.4702    8.7885 C.ar    1  UNL1        0.1053
     35 N          67.5202   95.8625    8.2463 N.ar    1  UNL1       -0.2350
     36 C          66.8300   96.7972    9.1949 C.ar    1  UNL1        0.1343
     37 S          66.2705   95.9826   10.3235 S.2     1  UNL1       -0.0652
     38 C          64.7579   89.7998   14.6739 C.3     1  UNL1        0.0485
     39 C          64.2301   88.5775   15.3649 C.ar    1  UNL1       -0.0204
     40 C          63.3653   88.7188   16.5823 C.ar    1  UNL1       -0.0042
     41 C          62.8376   87.4965   17.2733 C.ar    1  UNL1       -0.0003
     42 C          63.1746   86.1330   16.7470 C.ar    1  UNL1       -0.0000
     43 C          64.0394   85.9917   15.5296 C.ar    1  UNL1       -0.0003
     44 C          64.5672   87.2140   14.8386 C.ar    1  UNL1       -0.0042
@<TRIPOS>BOND
     1    17    18    3
     2    18    16    1
     3    16    14    1
     4    14    15    1
     5    14     5    1
     6     5     6   ar
     7     6     7   ar
     8     7     8   ar
     9     8     9   ar
    10     9    10   ar
    11    10     2    1
    12     2     3    2
    13     2     4   am
    14     4    19    1
    15    19    20    1
    16    20    21    1
    17    20    22    1
    18     4     1    1
    19     1    23    1
    20    23    24    1
    21    23    26    1
    22    26    38    1
    23    38    39    1
    24    39    40   ar
    25    40    41   ar
    26    41    42   ar
    27    42    43   ar
    28    43    44   ar
    29    26    27    1
    30    27    28   am
    31    28    29    2
    32    28    31    1
    33    31    32    1
    34    32    33    1
    35    33    34   ar
    36    34    35   ar
    37    35    36   ar
    38    36    37   ar
    39    10    11   ar
    40    11    12   ar
    41    12    13   ar
    42    13     5   ar
    43    12     7   ar
    44    44    39   ar
    45    37    33   ar
    46    24    25    1
    47    27    30    1
@<TRIPOS>MOLECULE
*****
 44 47 0 0 0
SMALL
GASTEIGER

@<TRIPOS>ATOM
      1 C          61.0714   89.5068    8.4125 C.3     1  UNL1        0.1245
      2 C          59.6257   87.3718    8.0940 C.2     1  UNL1        0.2492
      3 O          58.3690   86.7149    7.6048 O.2     1  UNL1       -0.2699
      4 N          59.8147   88.8500    7.9234 N.am    1  UNL1       -0.2735
      5 C          63.2534   84.3623   12.3998 C.ar    1  UNL1        0.2932
      6 N          63.7468   84.1636   10.9973 N.ar    1  UNL1       -0.1946
      7 C          62.8289   84.9076   10.0732 C.ar    1  UNL1        0.1202
      8 C          62.8219   85.0704    8.5821 C.ar    1  UNL1        0.0225
      9 C          61.7542   85.8918    7.9224 C.ar    1  UNL1        0.0063
     10 C          60.6935   86.5503    8.7538 C.ar    1  UNL1        0.0567
     11 C          60.7004   86.3874   10.2449 C.ar    1  UNL1        0.0437
     12 C          61.7681   85.5661   10.9046 C.ar    1  UNL1        0.1662
     13 O          62.0305   85.2291   12.3425 O.2     1  UNL1       -0.4237
     14 N          63.8738   83.7940   13.6416 N.pl3   1  UNL1       -0.2500
     15 C          65.2528   84.2177   14.0525 C.3     1  UNL1        0.1176
     16 C          63.1153   82.8020   14.4726 C.3     1  UNL1        0.1729
     17 C          62.3639   80.1385   13.3146 C.1     1  UNL1       -0.0124
     18 C          62.7396   81.4702   13.8936 C.1     1  UNL1       -0.0556
     19 C          58.7469   89.6714    7.2636 C.3     1  UNL1        0.0937
     20 C          59.0234   90.3483    5.9539 C.3     1  UNL1        0.0199
     21 C          57.9210   91.0663    5.2333 C.3     1  UNL1        0.0018
     22 C          60.4023   90.3072    5.3647 C.3     1  UNL1        0.0018
     23 C          61.1707   89.9695    9.8360 C.3     1  UNL1        0.1484
     24 O          59.9249   90.1848   10.6433 O.3     1  UNL1       -0.3810
     25 H          59.1480   89.9813   10.0994 H       1  UNL1        0.2105
     26 C          62.5157   90.2169   10.4521 C.3     1  UNL1        0.1075
     27 N          63.2358   89.1033   11.1532 N.am    1  UNL1       -0.2695
     28 C          62.9786   88.8424   12.6077 C.2     1  UNL1        0.4020
     29 O          62.0013   89.6951   13.3613 O.2     1  UNL1       -0.2264
     30 H          63.8772   88.5436   10.6586 H       1  UNL1        0.1528
     31 O          63.6987   87.7288   13.3088 O.3     1  UNL1       -0.4291
     32 C          64.3525   87.9767   14.6358 C.3     1  UNL1        0.2447
     33 C          63.6858   87.5160   15.8980 C.ar    1  UNL1        0.0714
     34 C          63.1259   88.4000   16.9728 C.ar    1  UNL1        0.1053
     35 N          62.5560   87.5206   18.0462 N.ar    1  UNL1       -0.2350
     36 C          62.7637   86.0931   17.6348 C.ar    1  UNL1        0.1343
     37 S          63.4620   86.0903   16.3071 S.2     1  UNL1       -0.0652
     38 C          63.1407   91.5778   10.3672 C.3     1  UNL1        0.0485
     39 C          64.4146   91.8655   11.1050 C.ar    1  UNL1       -0.0204
     40 C          64.4734   91.6962   12.5942 C.ar    1  UNL1       -0.0042
     41 C          65.7473   91.9839   13.3321 C.ar    1  UNL1       -0.0003
     42 C          66.9624   92.4408   12.5807 C.ar    1  UNL1       -0.0000
     43 C          66.9037   92.6101   11.0915 C.ar    1  UNL1       -0.0003
     44 C          65.6298   92.3224   10.3536 C.ar    1  UNL1       -0.0042
@<TRIPOS>BOND
     1    17    18    3
     2    18    16    1
     3    16    14    1
     4    14    15    1
     5    14     5    1
     6     5     6   ar
     7     6     7   ar
     8     7     8   ar
     9     8     9   ar
    10     9    10   ar
    11    10     2    1
    12     2     3    2
    13     2     4   am
    14     4    19    1
    15    19    20    1
    16    20    21    1
    17    20    22    1
    18     4     1    1
    19     1    23    1
    20    23    24    1
    21    23    26    1
    22    26    38    1
    23    38    39    1
    24    39    40   ar
    25    40    41   ar
    26    41    42   ar
    27    42    43   ar
    28    43    44   ar
    29    26    27    1
    30    27    28   am
    31    28    29    2
    32    28    31    1
    33    31    32    1
    34    32    33    1
    35    33    34   ar
    36    34    35   ar
    37    35    36   ar
    38    36    37   ar
    39    10    11   ar
    40    11    12   ar
    41    12    13   ar
    42    13     5   ar
    43    12     7   ar
    44    44    39   ar
    45    37    33   ar
    46    24    25    1
    47    27    30    1
@<TRIPOS>MOLECULE
*****
 44 47 0 0 0
SMALL
GASTEIGER

@<TRIPOS>ATOM
      1 C          62.4210   89.1432   11.3706 C.3     1  UNL1        0.1245
      2 C          60.7135   87.9726    9.8009 C.2     1  UNL1        0.2492
      3 O          59.4508   88.0156    8.9924 O.2     1  UNL1       -0.2699
      4 N          61.1583   89.1862   10.5621 N.am    1  UNL1       -0.2735
      5 C          63.4638   82.5222   11.6680 C.ar    1  UNL1        0.2932
      6 N          63.8655   82.9188   10.2783 N.ar    1  UNL1       -0.1946
      7 C          63.1674   84.2032    9.9425 C.ar    1  UNL1        0.1202
      8 C          63.1827   85.0623    8.7131 C.ar    1  UNL1        0.0225
      9 C          62.3648   86.3188    8.6659 C.ar    1  UNL1        0.0063
     10 C          61.5315   86.7161    9.8481 C.ar    1  UNL1        0.0567
     11 C          61.5161   85.8570   11.0776 C.ar    1  UNL1        0.0437
     12 C          62.3340   84.6006   11.1248 C.ar    1  UNL1        0.1662
     13 O          62.5173   83.5616   12.1911 O.2     1  UNL1       -0.4237
     14 N          63.9272   81.3008   12.4051 N.pl3   1  UNL1       -0.2500
     15 C          65.3465   81.2053   12.8808 C.3     1  UNL1        0.1176
     16 C          62.9712   80.1749   12.6665 C.3     1  UNL1        0.1729
     17 C          60.4400   80.6806   14.1954 C.1     1  UNL1       -0.0124
     18 C          61.7056   80.4277   13.4310 C.1     1  UNL1       -0.0556
     19 C          60.3403   90.4427   10.5148 C.3     1  UNL1        0.0937
     20 C          59.2470   90.6640   11.5177 C.3     1  UNL1        0.0199
     21 C          58.5341   91.9826   11.5712 C.3     1  UNL1        0.0018
     22 C          58.8666   89.5666   12.4670 C.3     1  UNL1        0.0018
     23 C          63.2460   90.3846   11.5395 C.3     1  UNL1        0.1484
     24 O          63.2423   91.4386   10.4722 O.3     1  UNL1       -0.3810
     25 H          62.6595   91.1628    9.7475 H       1  UNL1        0.2105
     26 C          64.0746   90.5720   12.7758 C.3     1  UNL1        0.1075
     27 N          64.4010   89.3942   13.6455 N.am    1  UNL1       -0.2695
     28 C          63.5283   89.0645   14.8201 C.2     1  UNL1        0.4020
     29 O          62.3291   89.9126   15.1249 O.2     1  UNL1       -0.2264
     30 H          65.1880   88.8376   13.4454 H       1  UNL1        0.1528
     31 O          63.8547   87.8868   15.6898 O.3     1  UNL1       -0.4291
     32 C          64.5382   86.6875   15.1029 C.3     1  UNL1        0.2447
     33 C          63.9317   85.3251   15.2637 C.ar    1  UNL1        0.0714
     34 C          64.6263   84.0170   15.0258 C.ar    1  UNL1        0.1053
     35 N          63.6480   82.9150   15.3057 N.ar    1  UNL1       -0.2350
     36 C          62.3486   83.5419   15.7165 C.ar    1  UNL1        0.1343
     37 S          62.5240   85.0314   15.6905 S.2     1  UNL1       -0.0652
     38 C          64.5768   91.9371   13.1423 C.3     1  UNL1        0.0485
     39 C          65.8043   92.0814   13.9922 C.ar    1  UNL1       -0.0204
     40 C          65.6716   92.3613   15.4599 C.ar    1  UNL1       -0.0042
     41 C          66.8991   92.5057   16.3098 C.ar    1  UNL1       -0.0003
     42 C          68.2593   92.3701   15.6921 C.ar    1  UNL1       -0.0000
     43 C          68.3919   92.0902   14.2245 C.ar    1  UNL1       -0.0003
     44 C          67.1644   91.9458   13.3745 C.ar    1  UNL1       -0.0042
@<TRIPOS>BOND
     1    17    18    3
     2    18    16    1
     3    16    14    1
     4    14    15    1
     5    14     5    1
     6     5     6   ar
     7     6     7   ar
     8     7     8   ar
     9     8     9   ar
    10     9    10   ar
    11    10     2    1
    12     2     3    2
    13     2     4   am
    14     4    19    1
    15    19    20    1
    16    20    21    1
    17    20    22    1
    18     4     1    1
    19     1    23    1
    20    23    24    1
    21    23    26    1
    22    26    38    1
    23    38    39    1
    24    39    40   ar
    25    40    41   ar
    26    41    42   ar
    27    42    43   ar
    28    43    44   ar
    29    26    27    1
    30    27    28   am
    31    28    29    2
    32    28    31    1
    33    31    32    1
    34    32    33    1
    35    33    34   ar
    36    34    35   ar
    37    35    36   ar
    38    36    37   ar
    39    10    11   ar
    40    11    12   ar
    41    12    13   ar
    42    13     5   ar
    43    12     7   ar
    44    44    39   ar
    45    37    33   ar
    46    24    25    1
    47    27    30    1
@<TRIPOS>MOLECULE
*****
 44 47 0 0 0
SMALL
GASTEIGER

@<TRIPOS>ATOM
      1 C          62.8860   87.0114   11.7429 C.3     1  UNL1        0.1245
      2 C          61.6656   88.8891   10.4258 C.2     1  UNL1        0.2492
      3 O          60.5840   89.3202    9.4802 O.2     1  UNL1       -0.2699
      4 N          61.8044   87.4425   10.7973 N.am    1  UNL1       -0.2735
      5 C          65.6694   93.8090   11.1477 C.ar    1  UNL1        0.2932
      6 N          65.4434   93.0628   12.4291 N.ar    1  UNL1       -0.1946
      7 C          64.4944   91.9356   12.1480 C.ar    1  UNL1        0.1202
      8 C          63.9120   90.8706   13.0291 C.ar    1  UNL1        0.0225
      9 C          62.9691   89.8551   12.4551 C.ar    1  UNL1        0.0063
     10 C          62.6086   89.9046   10.9999 C.ar    1  UNL1        0.0567
     11 C          63.1910   90.9697   10.1188 C.ar    1  UNL1        0.0437
     12 C          64.1339   91.9852   10.6929 C.ar    1  UNL1        0.1662
     13 O          64.8601   93.1430   10.0746 O.2     1  UNL1       -0.4237
     14 N          66.5501   95.0102   10.9704 N.pl3   1  UNL1       -0.2500
     15 C          66.3945   96.1947   11.8774 C.3     1  UNL1        0.1176
     16 C          67.5864   95.0270    9.8861 C.3     1  UNL1        0.1729
     17 C          68.7284   92.4486    8.8626 C.1     1  UNL1       -0.0124
     18 C          68.1574   93.7378    9.3743 C.1     1  UNL1       -0.0556
     19 C          60.8614   86.4269   10.2232 C.3     1  UNL1        0.0937
     20 C          60.9530   86.0537    8.7733 C.3     1  UNL1        0.0199
     21 C          62.2329   85.5000    8.2208 C.3     1  UNL1        0.0018
     22 C          59.7647   86.2341    7.8759 C.3     1  UNL1        0.0018
     23 C          62.9136   85.6032   12.2591 C.3     1  UNL1        0.1484
     24 O          61.9513   84.5873   11.7187 O.3     1  UNL1       -0.3810
     25 H          61.3858   85.0021   11.0486 H       1  UNL1        0.2105
     26 C          63.9034   85.2110   13.3157 C.3     1  UNL1        0.1075
     27 N          64.2104   83.7623   13.5551 N.am    1  UNL1       -0.2695
     28 C          63.2074   82.8874   14.2468 C.2     1  UNL1        0.4020
     29 O          61.8973   83.4611   14.6991 O.2     1  UNL1       -0.2264
     30 H          65.0703   83.3858   13.2582 H       1  UNL1        0.1528
     31 O          63.5144   81.4388   14.4862 O.3     1  UNL1       -0.4291
     32 C          62.6894   80.3774   13.8208 C.3     1  UNL1        0.2447
     33 C          62.7912   80.1672   12.3391 C.ar    1  UNL1        0.0714
     34 C          62.6029   78.8652   11.6183 C.ar    1  UNL1        0.1053
     35 N          62.7945   79.1154   10.1518 N.ar    1  UNL1       -0.2350
     36 C          63.1012   80.5720    9.9662 C.ar    1  UNL1        0.1343
     37 S          63.0992   81.2220   11.3181 S.2     1  UNL1       -0.0652
     38 C          64.5862   86.2673   14.1329 C.3     1  UNL1        0.0485
     39 C          63.9488   86.7679   15.3951 C.ar    1  UNL1       -0.0204
     40 C          63.5036   85.7959   16.4471 C.ar    1  UNL1       -0.0042
     41 C          62.8661   86.2965   17.7093 C.ar    1  UNL1       -0.0003
     42 C          62.6739   87.7692   17.9194 C.ar    1  UNL1       -0.0000
     43 C          63.1191   88.7412   16.8674 C.ar    1  UNL1       -0.0003
     44 C          63.7565   88.2406   15.6052 C.ar    1  UNL1       -0.0042
@<TRIPOS>BOND
     1    17    18    3
     2    18    16    1
     3    16    14    1
     4    14    15    1
     5    14     5    1
     6     5     6   ar
     7     6     7   ar
     8     7     8   ar
     9     8     9   ar
    10     9    10   ar
    11    10     2    1
    12     2     3    2
    13     2     4   am
    14     4    19    1
    15    19    20    1
    16    20    21    1
    17    20    22    1
    18     4     1    1
    19     1    23    1
    20    23    24    1
    21    23    26    1
    22    26    38    1
    23    38    39    1
    24    39    40   ar
    25    40    41   ar
    26    41    42   ar
    27    42    43   ar
    28    43    44   ar
    29    26    27    1
    30    27    28   am
    31    28    29    2
    32    28    31    1
    33    31    32    1
    34    32    33    1
    35    33    34   ar
    36    34    35   ar
    37    35    36   ar
    38    36    37   ar
    39    10    11   ar
    40    11    12   ar
    41    12    13   ar
    42    13     5   ar
    43    12     7   ar
    44    44    39   ar
    45    37    33   ar
    46    24    25    1
    47    27    30    1
@<TRIPOS>MOLECULE
*****
 44 47 0 0 0
SMALL
GASTEIGER

@<TRIPOS>ATOM
      1 C          62.5708   86.3379    9.8536 C.3     1  UNL1        0.1245
      2 C          60.9475   88.2696    9.2344 C.2     1  UNL1        0.2492
      3 O          59.7863   88.7854    8.4373 O.2     1  UNL1       -0.2699
      4 N          61.4095   86.8537    9.0565 N.am    1  UNL1       -0.2735
      5 C          64.8985   92.5163   11.9014 C.ar    1  UNL1        0.2932
      6 N          63.9190   91.9495   12.8860 N.ar    1  UNL1       -0.1946
      7 C          63.0454   90.9702   12.1594 C.ar    1  UNL1        0.1202
      8 C          61.9065   90.1085   12.6180 C.ar    1  UNL1        0.0225
      9 C          61.2072   89.2084   11.6430 C.ar    1  UNL1        0.0063
     10 C          61.6469   89.1699   10.2094 C.ar    1  UNL1        0.0567
     11 C          62.7858   90.0315    9.7508 C.ar    1  UNL1        0.0437
     12 C          63.4851   90.9317   10.7258 C.ar    1  UNL1        0.1662
     13 O          64.6303   91.8872   10.5664 O.2     1  UNL1       -0.4237
     14 N          65.9598   93.5335   12.1996 N.pl3   1  UNL1       -0.2500
     15 C          66.5104   93.6576   13.5893 C.3     1  UNL1        0.1176
     16 C          66.4705   94.4265   11.1080 C.3     1  UNL1        0.1729
     17 C          68.1850   93.2939    8.9222 C.1     1  UNL1       -0.0124
     18 C          67.3277   93.8602   10.0151 C.1     1  UNL1       -0.0556
     19 C          60.7101   85.9535    8.0815 C.3     1  UNL1        0.0937
     20 C          61.5092   85.0646    7.1752 C.3     1  UNL1        0.0199
     21 C          62.9701   84.8464    7.4360 C.3     1  UNL1        0.0018
     22 C          60.8473   84.3939    6.0080 C.3     1  UNL1        0.0018
     23 C          62.3320   85.6270   11.1528 C.3     1  UNL1        0.1484
     24 O          61.1344   85.9720   11.9875 O.3     1  UNL1       -0.3810
     25 H          60.6228   86.6683   11.5466 H       1  UNL1        0.2105
     26 C          63.2909   84.5712   11.6173 C.3     1  UNL1        0.1075
     27 N          64.0074   84.7318   12.9253 N.am    1  UNL1       -0.2695
     28 C          63.2417   84.6629   14.2133 C.2     1  UNL1        0.4020
     29 O          61.7595   84.4334   14.1933 O.2     1  UNL1       -0.2264
     30 H          64.9802   84.8825   12.9384 H       1  UNL1        0.1528
     31 O          63.9582   84.8235   15.5213 O.3     1  UNL1       -0.4291
     32 C          63.5023   85.8612   16.5038 C.3     1  UNL1        0.2447
     33 C          63.6042   87.3172   16.1582 C.ar    1  UNL1        0.0714
     34 C          64.3332   87.8952   14.9814 C.ar    1  UNL1        0.1053
     35 N          64.1746   89.3862   15.0246 N.ar    1  UNL1       -0.2350
     36 C          63.3476   89.7298   16.2280 C.ar    1  UNL1        0.1343
     37 S          62.9951   88.4511   16.9286 S.2     1  UNL1       -0.0652
     38 C          63.5333   83.3548   10.7737 C.3     1  UNL1        0.0485
     39 C          63.1700   81.9961   11.2950 C.ar    1  UNL1       -0.0204
     40 C          63.1944   80.8096   10.3776 C.ar    1  UNL1       -0.0042
     41 C          62.8310   79.4509   10.8989 C.ar    1  UNL1       -0.0003
     42 C          62.4433   79.2785   12.3376 C.ar    1  UNL1       -0.0000
     43 C          62.4189   80.4650   13.2550 C.ar    1  UNL1       -0.0003
     44 C          62.7823   81.8237   12.7337 C.ar    1  UNL1       -0.0042
@<TRIPOS>BOND
     1    17    18    3
     2    18    16    1
     3    16    14    1
     4    14    15    1
     5    14     5    1
     6     5     6   ar
     7     6     7   ar
     8     7     8   ar
     9     8     9   ar
    10     9    10   ar
    11    10     2    1
    12     2     3    2
    13     2     4   am
    14     4    19    1
    15    19    20    1
    16    20    21    1
    17    20    22    1
    18     4     1    1
    19     1    23    1
    20    23    24    1
    21    23    26    1
    22    26    38    1
    23    38    39    1
    24    39    40   ar
    25    40    41   ar
    26    41    42   ar
    27    42    43   ar
    28    43    44   ar
    29    26    27    1
    30    27    28   am
    31    28    29    2
    32    28    31    1
    33    31    32    1
    34    32    33    1
    35    33    34   ar
    36    34    35   ar
    37    35    36   ar
    38    36    37   ar
    39    10    11   ar
    40    11    12   ar
    41    12    13   ar
    42    13     5   ar
    43    12     7   ar
    44    44    39   ar
    45    37    33   ar
    46    24    25    1
    47    27    30    1
@<TRIPOS>MOLECULE
*****
 44 47 0 0 0
SMALL
GASTEIGER

@<TRIPOS>ATOM
      1 C          63.3711   90.1253   11.0269 C.3     1  UNL1        0.1245
      2 C          64.3812   91.3121   13.1056 C.2     1  UNL1        0.2492
      3 O          65.0267   92.5138   13.7295 O.2     1  UNL1       -0.2699
      4 N          64.0166   91.3270   11.6507 N.am    1  UNL1       -0.2735
      5 C          63.5464   85.2943   15.0666 C.ar    1  UNL1        0.2932
      6 N          63.3174   86.2905   16.1644 N.ar    1  UNL1       -0.1946
      7 C          63.5383   87.6622   15.5991 C.ar    1  UNL1        0.1202
      8 C          63.4538   89.0272   16.2152 C.ar    1  UNL1        0.0225
      9 C          63.7348   90.2438   15.3840 C.ar    1  UNL1        0.0063
     10 C          64.1002   90.0954   13.9368 C.ar    1  UNL1        0.0567
     11 C          64.1846   88.7304   13.3207 C.ar    1  UNL1        0.0437
     12 C          63.9037   87.5138   14.1519 C.ar    1  UNL1        0.1662
     13 O          63.9087   86.0503   13.8228 O.2     1  UNL1       -0.4237
     14 N          63.4329   83.8037   15.1908 N.pl3   1  UNL1       -0.2500
     15 C          64.6514   82.9810   15.4880 C.3     1  UNL1        0.1176
     16 C          62.1010   83.1359   15.0179 C.3     1  UNL1        0.1729
     17 C          61.9095   80.5305   13.5430 C.1     1  UNL1       -0.0124
     18 C          62.0052   81.8332   14.2804 C.1     1  UNL1       -0.0556
     19 C          64.2976   92.5437   10.8195 C.3     1  UNL1        0.0937
     20 C          65.6761   93.1348   10.7972 C.3     1  UNL1        0.0199
     21 C          66.8563   92.2729   10.4590 C.3     1  UNL1        0.0018
     22 C          65.8744   94.5877   11.1130 C.3     1  UNL1        0.0018
     23 C          61.8782   89.9804   11.0473 C.3     1  UNL1        0.1484
     24 O          61.0507   90.8671   11.9298 O.3     1  UNL1       -0.3810
     25 H          61.6320   91.4724   12.4163 H       1  UNL1        0.2105
     26 C          61.2130   88.9488   10.1852 C.3     1  UNL1        0.1075
     27 N          60.8637   89.2723    8.7627 N.am    1  UNL1       -0.2695
     28 C          59.7393   88.5485    8.0833 C.2     1  UNL1        0.4020
     29 O          58.9640   87.5012    8.8264 O.2     1  UNL1       -0.2264
     30 H          61.3726   89.9597    8.2750 H       1  UNL1        0.1528
     31 O          59.3900   88.8720    6.6608 O.3     1  UNL1       -0.4291
     32 C          58.6310   90.1256    6.3413 C.3     1  UNL1        0.2447
     33 C          59.1217   91.0452    5.2628 C.ar    1  UNL1        0.0714
     34 C          58.2759   91.9765    4.4457 C.ar    1  UNL1        0.1053
     35 N          59.1759   92.7019    3.4898 N.ar    1  UNL1       -0.2350
     36 C          60.5780   92.2190    3.7160 C.ar    1  UNL1        0.1343
     37 S          60.5445   91.1951    4.8118 S.2     1  UNL1       -0.0652
     38 C          60.8969   87.5938   10.7456 C.3     1  UNL1        0.0485
     39 C          61.7610   86.4181   10.3976 C.ar    1  UNL1       -0.0204
     40 C          62.0559   85.3720   11.4313 C.ar    1  UNL1       -0.0042
     41 C          62.9200   84.1963   11.0834 C.ar    1  UNL1       -0.0003
     42 C          63.4893   84.0667    9.7017 C.ar    1  UNL1       -0.0000
     43 C          63.1944   85.1128    8.6679 C.ar    1  UNL1       -0.0003
     44 C          62.3303   86.2885    9.0159 C.ar    1  UNL1       -0.0042
@<TRIPOS>BOND
     1    17    18    3
     2    18    16    1
     3    16    14    1
     4    14    15    1
     5    14     5    1
     6     5     6   ar
     7     6     7   ar
     8     7     8   ar
     9     8     9   ar
    10     9    10   ar
    11    10     2    1
    12     2     3    2
    13     2     4   am
    14     4    19    1
    15    19    20    1
    16    20    21    1
    17    20    22    1
    18     4     1    1
    19     1    23    1
    20    23    24    1
    21    23    26    1
    22    26    38    1
    23    38    39    1
    24    39    40   ar
    25    40    41   ar
    26    41    42   ar
    27    42    43   ar
    28    43    44   ar
    29    26    27    1
    30    27    28   am
    31    28    29    2
    32    28    31    1
    33    31    32    1
    34    32    33    1
    35    33    34   ar
    36    34    35   ar
    37    35    36   ar
    38    36    37   ar
    39    10    11   ar
    40    11    12   ar
    41    12    13   ar
    42    13     5   ar
    43    12     7   ar
    44    44    39   ar
    45    37    33   ar
    46    24    25    1
    47    27    30    1
@<TRIPOS>MOLECULE
*****
 44 47 0 0 0
SMALL
GASTEIGER

@<TRIPOS>ATOM
      1 C          60.9857   89.5719    8.2898 C.3     1  UNL1        0.1245
      2 C          59.5326   87.4256    8.1118 C.2     1  UNL1        0.2492
      3 O          58.2756   86.7414    7.6623 O.2     1  UNL1       -0.2699
      4 N          59.7288   88.8877    7.8403 N.am    1  UNL1       -0.2735
      5 C          63.0814   84.6446   12.6316 C.ar    1  UNL1        0.2932
      6 N          63.6170   84.3990   11.2521 N.ar    1  UNL1       -0.1946
      7 C          62.7147   85.0917   10.2744 C.ar    1  UNL1        0.1202
      8 C          62.7473   85.1960    8.7784 C.ar    1  UNL1        0.0225
      9 C          61.6866   85.9740    8.0576 C.ar    1  UNL1        0.0063
     10 C          60.5933   86.6476    8.8327 C.ar    1  UNL1        0.0567
     11 C          60.5606   86.5433   10.3287 C.ar    1  UNL1        0.0437
     12 C          61.6213   85.7653   11.0495 C.ar    1  UNL1        0.1662
     13 O          61.8480   85.4890   12.5063 O.2     1  UNL1       -0.4237
     14 N          63.6750   84.1352   13.9115 N.pl3   1  UNL1       -0.2500
     15 C          65.1127   84.4150   14.2351 C.3     1  UNL1        0.1176
     16 C          62.8309   83.3459   14.8678 C.3     1  UNL1        0.1729
     17 C          61.3766   80.8998   13.9182 C.1     1  UNL1       -0.0124
     18 C          62.1037   82.1229   14.3930 C.1     1  UNL1       -0.0556
     19 C          58.6681   89.6657    7.1194 C.3     1  UNL1        0.0937
     20 C          59.0113   90.4226    5.8707 C.3     1  UNL1        0.0199
     21 C          60.4169   90.4078    5.3472 C.3     1  UNL1        0.0018
     22 C          57.9489   91.1943    5.1455 C.3     1  UNL1        0.0018
     23 C          61.1424   89.9871    9.7227 C.3     1  UNL1        0.1484
     24 O          59.9335   90.1255   10.5999 O.3     1  UNL1       -0.3810
     25 H          59.1372   89.9117   10.0890 H       1  UNL1        0.2105
     26 C          62.5079   90.2638   10.2783 C.3     1  UNL1        0.1075
     27 N          63.2154   89.2164   11.0860 N.am    1  UNL1       -0.2695
     28 C          62.7816   88.9350   12.4940 C.2     1  UNL1        0.4020
     29 O          61.6402   89.7011   13.0944 O.2     1  UNL1       -0.2264
     30 H          63.9645   88.7136   10.6920 H       1  UNL1        0.1528
     31 O          63.4891   87.8876   13.3018 O.3     1  UNL1       -0.4291
     32 C          64.4457   88.2937   14.3833 C.3     1  UNL1        0.2447
     33 C          64.1129   89.4448   15.2856 C.ar    1  UNL1        0.0714
     34 C          63.0268   89.4689   16.3200 C.ar    1  UNL1        0.1053
     35 N          63.0503   90.8130   16.9855 N.ar    1  UNL1       -0.2350
     36 C          64.1509   91.6196   16.3625 C.ar    1  UNL1        0.1343
     37 S          64.8076   90.7740   15.3118 S.2     1  UNL1       -0.0652
     38 C          63.1659   91.5880   10.0263 C.3     1  UNL1        0.0485
     39 C          64.4207   91.9541   10.7621 C.ar    1  UNL1       -0.0204
     40 C          65.6653   92.2967    9.9982 C.ar    1  UNL1       -0.0042
     41 C          66.9201   92.6628   10.7340 C.ar    1  UNL1       -0.0003
     42 C          66.9303   92.6863   12.2338 C.ar    1  UNL1       -0.0000
     43 C          65.6857   92.3437   12.9977 C.ar    1  UNL1       -0.0003
     44 C          64.4309   91.9776   12.2619 C.ar    1  UNL1       -0.0042
@<TRIPOS>BOND
     1    17    18    3
     2    18    16    1
     3    16    14    1
     4    14    15    1
     5    14     5    1
     6     5     6   ar
     7     6     7   ar
     8     7     8   ar
     9     8     9   ar
    10     9    10   ar
    11    10     2    1
    12     2     3    2
    13     2     4   am
    14     4    19    1
    15    19    20    1
    16    20    21    1
    17    20    22    1
    18     4     1    1
    19     1    23    1
    20    23    24    1
    21    23    26    1
    22    26    38    1
    23    38    39    1
    24    39    40   ar
    25    40    41   ar
    26    41    42   ar
    27    42    43   ar
    28    43    44   ar
    29    26    27    1
    30    27    28   am
    31    28    29    2
    32    28    31    1
    33    31    32    1
    34    32    33    1
    35    33    34   ar
    36    34    35   ar
    37    35    36   ar
    38    36    37   ar
    39    10    11   ar
    40    11    12   ar
    41    12    13   ar
    42    13     5   ar
    43    12     7   ar
    44    44    39   ar
    45    37    33   ar
    46    24    25    1
    47    27    30    1
@<TRIPOS>MOLECULE
*****
 44 47 0 0 0
SMALL
GASTEIGER

@<TRIPOS>ATOM
      1 C          62.9824   89.2089   11.9756 C.3     1  UNL1        0.1245
      2 C          64.1301   89.4005   14.2985 C.2     1  UNL1        0.2492
      3 O          64.8012   90.2319   15.3513 O.2     1  UNL1       -0.2699
      4 N          63.6535   90.0404   13.0283 N.am    1  UNL1       -0.2735
      5 C          63.2885   83.1360   13.4018 C.ar    1  UNL1        0.2932
      6 N          63.3483   83.5027   14.8550 N.ar    1  UNL1       -0.1946
      7 C          63.5467   84.9864   14.9509 C.ar    1  UNL1        0.1202
      8 C          63.6784   85.9075   16.1274 C.ar    1  UNL1        0.0225
      9 C          63.8728   87.3788   15.9099 C.ar    1  UNL1        0.0063
     10 C          63.9356   87.9291   14.5159 C.ar    1  UNL1        0.0567
     11 C          63.8040   87.0080   13.3394 C.ar    1  UNL1        0.0437
     12 C          63.6096   85.5367   13.5569 C.ar    1  UNL1        0.1662
     13 O          63.4500   84.3930   12.5995 O.2     1  UNL1       -0.4237
     14 N          63.1002   81.7547   12.8480 N.pl3   1  UNL1       -0.2500
     15 C          63.4184   81.4736   11.4094 C.3     1  UNL1        0.1176
     16 C          62.5938   80.6545   13.7329 C.3     1  UNL1        0.1729
     17 C          59.6480   80.3514   14.2129 C.1     1  UNL1       -0.0124
     18 C          61.1209   80.5030   13.9729 C.1     1  UNL1       -0.0556
     19 C          63.8480   91.5118   12.8109 C.3     1  UNL1        0.0937
     20 C          65.0904   92.0124   12.1357 C.3     1  UNL1        0.0199
     21 C          66.3561   92.1801   12.9229 C.3     1  UNL1        0.0018
     22 C          65.0670   92.3453   10.6733 C.3     1  UNL1        0.0018
     23 C          61.4935   89.0282   11.9988 C.3     1  UNL1        0.1484
     24 O          60.6662   89.7503   13.0206 O.3     1  UNL1       -0.3810
     25 H          61.2448   90.2873   13.5842 H       1  UNL1        0.2105
     26 C          60.8319   88.1254   11.0001 C.3     1  UNL1        0.1075
     27 N          59.7829   88.6699   10.0764 N.am    1  UNL1       -0.2695
     28 C          60.1843   89.4857    8.8835 C.2     1  UNL1        0.4020
     29 O          61.6347   89.7572    8.6142 O.2     1  UNL1       -0.2264
     30 H          58.8309   88.4917   10.2531 H       1  UNL1        0.1528
     31 O          59.1353   90.0302    7.9597 O.3     1  UNL1       -0.4291
     32 C          59.1565   89.6681    6.5043 C.3     1  UNL1        0.2447
     33 C          59.2715   90.7439    5.4654 C.ar    1  UNL1        0.0714
     34 C          58.1423   91.5663    4.9190 C.ar    1  UNL1        0.1053
     35 N          58.7088   92.5170    3.9064 N.ar    1  UNL1       -0.2350
     36 C          60.1882   92.2821    3.8269 C.ar    1  UNL1        0.1343
     37 S          60.5360   91.1863    4.7904 S.2     1  UNL1       -0.0652
     38 C          61.2193   86.6783   10.9252 C.3     1  UNL1        0.0485
     39 C          61.5172   86.0495    9.5964 C.ar    1  UNL1       -0.0204
     40 C          60.4656   86.0217    8.5271 C.ar    1  UNL1       -0.0042
     41 C          60.7634   85.3929    7.1983 C.ar    1  UNL1       -0.0003
     42 C          62.1129   84.7918    6.9387 C.ar    1  UNL1       -0.0000
     43 C          63.1646   84.8195    8.0079 C.ar    1  UNL1       -0.0003
     44 C          62.8667   85.4484    9.3367 C.ar    1  UNL1       -0.0042
@<TRIPOS>BOND
     1    17    18    3
     2    18    16    1
     3    16    14    1
     4    14    15    1
     5    14     5    1
     6     5     6   ar
     7     6     7   ar
     8     7     8   ar
     9     8     9   ar
    10     9    10   ar
    11    10     2    1
    12     2     3    2
    13     2     4   am
    14     4    19    1
    15    19    20    1
    16    20    21    1
    17    20    22    1
    18     4     1    1
    19     1    23    1
    20    23    24    1
    21    23    26    1
    22    26    38    1
    23    38    39    1
    24    39    40   ar
    25    40    41   ar
    26    41    42   ar
    27    42    43   ar
    28    43    44   ar
    29    26    27    1
    30    27    28   am
    31    28    29    2
    32    28    31    1
    33    31    32    1
    34    32    33    1
    35    33    34   ar
    36    34    35   ar
    37    35    36   ar
    38    36    37   ar
    39    10    11   ar
    40    11    12   ar
    41    12    13   ar
    42    13     5   ar
    43    12     7   ar
    44    44    39   ar
    45    37    33   ar
    46    24    25    1
    47    27    30    1
