@<TRIPOS>MOLECULE
*****
 34 38 0 0 0
SMALL
GASTEIGER

@<TRIPOS>ATOM
      1 C          60.3453   86.7473    7.8678 C.3     1  UNL1        0.0795
      2 C          59.5535   87.5416    6.8718 C.3     1  UNL1        0.0178
      3 C          59.2583   88.9892    7.1313 C.3     1  UNL1        0.0029
      4 C          59.7550   89.6425    8.3868 C.3     1  UNL1        0.0178
      5 C          60.5468   88.8482    9.3828 C.3     1  UNL1        0.0798
      6 N          60.8420   87.4006    9.1233 N.3     1  UNL1       -0.1583
      7 C          61.0435   89.5015   10.6385 C.3     1  UNL1        0.0224
      8 C          61.0485   90.0539   12.0331 C.3     1  UNL1        0.0018
      9 C          59.7999   89.4378   11.4748 C.3     1  UNL1        0.0018
     10 C          62.4596   89.7921   10.2382 C.3     1  UNL1        0.0706
     11 C          63.3913   90.4577   11.2071 C.ar    1  UNL1        0.1805
     12 N          63.7309   89.9663   12.5831 N.ar    1  UNL1       -0.0606
     13 O          64.6965   90.9364   13.1966 O.2     1  UNL1       -0.3359
     14 C          64.9537   92.0274   12.1999 C.ar    1  UNL1        0.2527
     15 N          64.1471   91.7315   10.9703 N.ar    1  UNL1       -0.1937
     16 C          65.8587   93.2072   12.3980 C.3     1  UNL1        0.1615
     17 N          66.5483   93.8296   11.2203 N.3     1  UNL1       -0.2605
     18 C          67.3588   92.9774   10.2892 C.3     1  UNL1        0.1050
     19 C          68.0484   93.5998    9.1115 C.3     1  UNL1        0.1595
     20 O          67.9275   95.0744    8.8648 O.3     1  UNL1       -0.3508
     21 C          67.1170   95.9266    9.7958 C.3     1  UNL1        0.1595
     22 C          66.4274   95.3042   10.9736 C.3     1  UNL1        0.1050
     23 S          61.6338   86.6063   10.1194 S.O2    1  UNL1        0.0632
     24 O          62.8464   86.7169    9.2435 O.2     1  UNL1       -0.1528
     25 O          60.7473   86.3369   11.1012 O.2     1  UNL1       -0.1528
     26 C          62.4257   85.8121   11.1155 C.ar    1  UNL1        0.1222
     27 C          62.8059   84.3933   10.8113 C.ar    1  UNL1        0.0208
     28 C          63.5978   83.5991   11.8073 C.ar    1  UNL1        0.0128
     29 C          64.0094   84.2236   13.1076 C.ar    1  UNL1        0.0578
     30 CL         64.8013   83.4294   14.1036 Cl      1  UNL1       -0.0822
     31 C          63.6292   85.6423   13.4117 C.ar    1  UNL1        0.0128
     32 C          62.8373   86.4366   12.4157 C.ar    1  UNL1        0.0208
     33 C          61.7202   84.9162    6.6403 C.3     1  UNL1        0.0015
     34 C          60.6404   85.2997    7.6083 C.3     1  UNL1        0.0177
@<TRIPOS>BOND
     1    33    34    1
     2     1    34    1
     3     1     2    1
     4     2     3    1
     5     3     4    1
     6     4     5    1
     7     5     7    1
     8     7    10    1
     9    10    11    1
    10    11    12   ar
    11    12    13   ar
    12    13    14   ar
    13    14    16    1
    14    16    17    1
    15    17    18    1
    16    18    19    1
    17    19    20    1
    18    20    21    1
    19    21    22    1
    20    14    15   ar
    21     7     8    1
    22     8     9    1
    23     5     6    1
    24     6    23    1
    25    23    24    2
    26    23    25    2
    27    23    26    1
    28    26    27   ar
    29    27    28   ar
    30    28    29   ar
    31    29    30    1
    32    29    31   ar
    33    31    32   ar
    34     6     1    1
    35    32    26   ar
    36     9     7    1
    37    15    11   ar
    38    22    17    1
@<TRIPOS>MOLECULE
*****
 34 38 0 0 0
SMALL
GASTEIGER

@<TRIPOS>ATOM
      1 C          60.3123   86.7365    7.8354 C.3     1  UNL1        0.0795
      2 C          59.5110   87.4955    6.8196 C.3     1  UNL1        0.0178
      3 C          59.1903   88.9431    7.0467 C.3     1  UNL1        0.0029
      4 C          59.6708   89.6317    8.2897 C.3     1  UNL1        0.0178
      5 C          60.4720   88.8727    9.3055 C.3     1  UNL1        0.0798
      6 N          60.7928   87.4251    9.0783 N.3     1  UNL1       -0.1583
      7 C          60.9526   89.5613   10.5485 C.3     1  UNL1        0.0224
      8 C          60.9619   90.0947   11.9504 C.3     1  UNL1        0.0018
      9 C          59.7626   89.3536   11.4379 C.3     1  UNL1        0.0018
     10 C          62.3093   90.0080   10.0907 C.3     1  UNL1        0.0706
     11 C          63.2797   90.5887   11.0761 C.ar    1  UNL1        0.1805
     12 N          63.5549   90.0664   12.4551 N.ar    1  UNL1       -0.0606
     13 O          64.5905   90.9486   13.0869 O.2     1  UNL1       -0.3359
     14 C          64.9555   92.0161   12.0984 C.ar    1  UNL1        0.2527
     15 N          64.1454   91.7937   10.8556 N.ar    1  UNL1       -0.1937
     16 C          65.9551   93.1135   12.3146 C.3     1  UNL1        0.1615
     17 N          66.9939   92.9807   13.3884 N.3     1  UNL1       -0.2605
     18 C          66.8946   93.8095   14.6347 C.3     1  UNL1        0.1050
     19 C          67.9335   93.6767   15.7085 C.3     1  UNL1        0.1595
     20 O          69.0717   92.7152   15.5360 O.3     1  UNL1       -0.3508
     21 C          69.1712   91.8865   14.2898 C.3     1  UNL1        0.1595
     22 C          68.1323   92.0192   13.2159 C.3     1  UNL1        0.1050
     23 S          61.5941   86.6661   10.0942 S.O2    1  UNL1        0.0632
     24 O          62.8348   86.8877    9.2810 O.2     1  UNL1       -0.1528
     25 O          60.6850   86.3073   11.0255 O.2     1  UNL1       -0.1528
     26 C          62.3953   85.9071   11.1100 C.ar    1  UNL1        0.1222
     27 C          62.7097   84.4575   10.8865 C.ar    1  UNL1        0.0208
     28 C          63.5110   83.6986   11.9023 C.ar    1  UNL1        0.0128
     29 C          63.9979   84.3891   13.1416 C.ar    1  UNL1        0.0578
     30 CL         64.7992   83.6302   14.1574 Cl      1  UNL1       -0.0822
     31 C          63.6836   85.8387   13.3652 C.ar    1  UNL1        0.0128
     32 C          62.8822   86.5977   12.3494 C.ar    1  UNL1        0.0208
     33 C          61.8098   84.9054    6.7609 C.3     1  UNL1        0.0015
     34 C          60.6330   85.2889    7.6083 C.3     1  UNL1        0.0177
@<TRIPOS>BOND
     1    33    34    1
     2     1    34    1
     3     1     2    1
     4     2     3    1
     5     3     4    1
     6     4     5    1
     7     5     7    1
     8     7    10    1
     9    10    11    1
    10    11    12   ar
    11    12    13   ar
    12    13    14   ar
    13    14    16    1
    14    16    17    1
    15    17    18    1
    16    18    19    1
    17    19    20    1
    18    20    21    1
    19    21    22    1
    20    14    15   ar
    21     7     8    1
    22     8     9    1
    23     5     6    1
    24     6    23    1
    25    23    24    2
    26    23    25    2
    27    23    26    1
    28    26    27   ar
    29    27    28   ar
    30    28    29   ar
    31    29    30    1
    32    29    31   ar
    33    31    32   ar
    34     6     1    1
    35    32    26   ar
    36     9     7    1
    37    15    11   ar
    38    22    17    1
@<TRIPOS>MOLECULE
*****
 34 38 0 0 0
SMALL
GASTEIGER

@<TRIPOS>ATOM
      1 C          63.5035   84.5200    9.7516 C.3     1  UNL1        0.0795
      2 C          64.2992   83.2535    9.6374 C.3     1  UNL1        0.0178
      3 C          64.6845   82.4959   10.8733 C.3     1  UNL1        0.0029
      4 C          64.2743   83.0047   12.2234 C.3     1  UNL1        0.0178
      5 C          63.4787   84.2711   12.3375 C.3     1  UNL1        0.0798
      6 N          63.0933   85.0287   11.1016 N.3     1  UNL1       -0.1583
      7 C          63.0684   84.7800   13.6877 C.3     1  UNL1        0.0224
      8 C          62.2590   84.9699   14.9362 C.3     1  UNL1        0.0018
      9 C          61.7765   84.0384   13.8640 C.3     1  UNL1        0.0018
     10 C          64.2178   85.6983   13.9801 C.3     1  UNL1        0.0706
     11 C          63.9777   86.9976   14.6902 C.ar    1  UNL1        0.1805
     12 N          63.4585   87.1554   16.0886 N.ar    1  UNL1       -0.0606
     13 O          63.3746   88.6225   16.3892 O.2     1  UNL1       -0.3359
     14 C          63.8420   89.3716   15.1765 C.ar    1  UNL1        0.2527
     15 N          64.2148   88.3673   14.1265 N.ar    1  UNL1       -0.1937
     16 C          63.9225   90.8631   15.0382 C.3     1  UNL1        0.1615
     17 N          65.0279   91.4833   14.2363 N.3     1  UNL1       -0.2605
     18 C          64.7750   91.9224   12.8243 C.3     1  UNL1        0.1050
     19 C          65.8805   92.5427   12.0224 C.3     1  UNL1        0.1595
     20 O          67.2388   92.7240   12.6322 O.3     1  UNL1       -0.3508
     21 C          67.4918   92.2850   14.0440 C.3     1  UNL1        0.1595
     22 C          66.3863   91.6647   14.8461 C.3     1  UNL1        0.1050
     23 S          62.2976   86.2952   11.2159 S.O2    1  UNL1        0.0632
     24 O          61.0409   85.5325   10.9180 O.2     1  UNL1       -0.1528
     25 O          63.2219   87.2371   11.5008 O.2     1  UNL1       -0.1528
     26 C          61.5020   87.5617   11.3301 C.ar    1  UNL1        0.1222
     27 C          62.2051   88.8786   11.4762 C.ar    1  UNL1        0.0208
     28 C          61.4094   90.1450   11.5904 C.ar    1  UNL1        0.0128
     29 C          59.9106   90.0946   11.5585 C.ar    1  UNL1        0.0578
     30 CL         59.1150   91.3610   11.6727 Cl      1  UNL1       -0.0822
     31 C          59.2075   88.7777   11.4124 C.ar    1  UNL1        0.0128
     32 C          60.0031   87.5112   11.2982 C.ar    1  UNL1        0.0208
     33 C          62.7185   84.5353    7.2750 C.3     1  UNL1        0.0015
     34 C          63.1182   85.2776    8.5156 C.3     1  UNL1        0.0177
@<TRIPOS>BOND
     1    33    34    1
     2     1    34    1
     3     1     2    1
     4     2     3    1
     5     3     4    1
     6     4     5    1
     7     5     7    1
     8     7    10    1
     9    10    11    1
    10    11    12   ar
    11    12    13   ar
    12    13    14   ar
    13    14    16    1
    14    16    17    1
    15    17    18    1
    16    18    19    1
    17    19    20    1
    18    20    21    1
    19    21    22    1
    20    14    15   ar
    21     7     8    1
    22     8     9    1
    23     5     6    1
    24     6    23    1
    25    23    24    2
    26    23    25    2
    27    23    26    1
    28    26    27   ar
    29    27    28   ar
    30    28    29   ar
    31    29    30    1
    32    29    31   ar
    33    31    32   ar
    34     6     1    1
    35    32    26   ar
    36     9     7    1
    37    15    11   ar
    38    22    17    1
@<TRIPOS>MOLECULE
*****
 34 38 0 0 0
SMALL
GASTEIGER

@<TRIPOS>ATOM
      1 C          63.0888   85.7793   12.5521 C.3     1  UNL1        0.0795
      2 C          63.9346   85.4310   13.7408 C.3     1  UNL1        0.0178
      3 C          64.5154   86.5203   14.5930 C.3     1  UNL1        0.0029
      4 C          64.2504   87.9577   14.2564 C.3     1  UNL1        0.0178
      5 C          63.4046   88.3060   13.0676 C.3     1  UNL1        0.0798
      6 N          62.8238   87.2168   12.2155 N.3     1  UNL1       -0.1583
      7 C          63.1396   89.7436   12.7310 C.3     1  UNL1        0.0224
      8 C          62.3978   91.0338   12.5437 C.3     1  UNL1        0.0018
      9 C          61.6745   89.8186   13.0441 C.3     1  UNL1        0.0018
     10 C          64.5126   90.1677   12.3010 C.3     1  UNL1        0.0706
     11 C          65.0616   91.4916   12.7438 C.ar    1  UNL1        0.1805
     12 N          65.2840   91.9237   14.1629 N.ar    1  UNL1       -0.0606
     13 O          65.8444   93.3149   14.1415 O.2     1  UNL1       -0.3359
     14 C          65.9685   93.7425   12.7090 C.ar    1  UNL1        0.2527
     15 N          65.4847   92.6156   11.8453 N.ar    1  UNL1       -0.1937
     16 C          66.4856   95.0650   12.2254 C.3     1  UNL1        0.1615
     17 N          66.4490   95.3951   10.7627 N.3     1  UNL1       -0.2605
     18 C          67.3401   94.6604    9.8054 C.3     1  UNL1        0.1050
     19 C          67.3034   94.9905    8.3427 C.3     1  UNL1        0.1595
     20 O          66.3757   96.0553    7.8372 O.3     1  UNL1       -0.3508
     21 C          65.4847   96.7900    8.7943 C.3     1  UNL1        0.1595
     22 C          65.5213   96.4599   10.2571 C.3     1  UNL1        0.1050
     23 S          61.9779   87.5651   11.0266 S.O2    1  UNL1        0.0632
     24 O          60.7575   87.0845   11.7542 O.2     1  UNL1       -0.1528
     25 O          62.8596   88.0606   10.1324 O.2     1  UNL1       -0.1528
     26 C          61.1321   87.9134    9.8379 C.ar    1  UNL1        0.1222
     27 C          60.4916   86.8250    9.0283 C.ar    1  UNL1        0.0208
     28 C          59.6458   87.1733    7.8395 C.ar    1  UNL1        0.0128
     29 C          59.4403   88.6099    7.4603 C.ar    1  UNL1        0.0578
     30 CL         58.5944   88.9582    6.2716 Cl      1  UNL1       -0.0822
     31 C          60.0807   89.6983    8.2698 C.ar    1  UNL1        0.0128
     32 C          60.9266   89.3500    9.4586 C.ar    1  UNL1        0.0208
     33 C          63.3753   83.9674   10.7122 C.3     1  UNL1        0.0015
     34 C          62.5080   84.6901   11.6999 C.3     1  UNL1        0.0177
@<TRIPOS>BOND
     1    33    34    1
     2     1    34    1
     3     1     2    1
     4     2     3    1
     5     3     4    1
     6     4     5    1
     7     5     7    1
     8     7    10    1
     9    10    11    1
    10    11    12   ar
    11    12    13   ar
    12    13    14   ar
    13    14    16    1
    14    16    17    1
    15    17    18    1
    16    18    19    1
    17    19    20    1
    18    20    21    1
    19    21    22    1
    20    14    15   ar
    21     7     8    1
    22     8     9    1
    23     5     6    1
    24     6    23    1
    25    23    24    2
    26    23    25    2
    27    23    26    1
    28    26    27   ar
    29    27    28   ar
    30    28    29   ar
    31    29    30    1
    32    29    31   ar
    33    31    32   ar
    34     6     1    1
    35    32    26   ar
    36     9     7    1
    37    15    11   ar
    38    22    17    1
@<TRIPOS>MOLECULE
*****
 34 38 0 0 0
SMALL
GASTEIGER

@<TRIPOS>ATOM
      1 C          62.1161   86.9500   11.0001 C.3     1  UNL1        0.0795
      2 C          62.2003   88.4154   10.6910 C.3     1  UNL1        0.0178
      3 C          62.9318   89.3373   11.6211 C.3     1  UNL1        0.0029
      4 C          63.5791   88.7938   12.8602 C.3     1  UNL1        0.0178
      5 C          63.4950   87.3284   13.1693 C.3     1  UNL1        0.0798
      6 N          62.7635   86.4065   12.2392 N.3     1  UNL1       -0.1583
      7 C          64.1424   86.7849   14.4085 C.3     1  UNL1        0.0224
      8 C          65.0250   85.9484   15.2868 C.3     1  UNL1        0.0018
      9 C          65.0446   85.7527   13.7997 C.3     1  UNL1        0.0018
     10 C          63.4649   87.6283   15.4475 C.3     1  UNL1        0.0706
     11 C          63.7794   89.0916   15.5474 C.ar    1  UNL1        0.1805
     12 N          62.9968   90.1109   16.3212 N.ar    1  UNL1       -0.0606
     13 O          63.6653   91.4417   16.1430 O.2     1  UNL1       -0.3359
     14 C          64.8612   91.2450   15.2591 C.ar    1  UNL1        0.2527
     15 N          64.9316   89.7925   14.8910 N.ar    1  UNL1       -0.1937
     16 C          65.8185   92.3133   14.8203 C.3     1  UNL1        0.1615
     17 N          65.7550   92.8484   13.4205 N.3     1  UNL1       -0.2605
     18 C          66.3843   94.1702   13.0935 C.3     1  UNL1        0.1050
     19 C          66.3208   94.7052   11.6937 C.3     1  UNL1        0.1595
     20 O          65.6281   93.9186   10.6208 O.3     1  UNL1       -0.3508
     21 C          64.9988   92.5968   10.9476 C.3     1  UNL1        0.1595
     22 C          65.0622   92.0617   12.3475 C.3     1  UNL1        0.1050
     23 S          62.6794   84.9411   12.5483 S.O2    1  UNL1        0.0632
     24 O          63.5638   84.6427   11.3742 O.2     1  UNL1       -0.1528
     25 O          61.8887   84.8826   13.6410 O.2     1  UNL1       -0.1528
     26 C          62.5953   83.4757   12.8574 C.ar    1  UNL1        0.1222
     27 C          62.2612   83.0202   14.2470 C.ar    1  UNL1        0.0208
     28 C          62.1771   81.5549   14.5561 C.ar    1  UNL1        0.0128
     29 C          62.4271   80.5449   13.4756 C.ar    1  UNL1        0.0578
     30 CL         62.3430   79.0795   13.7846 Cl      1  UNL1       -0.0822
     31 C          62.7612   81.0003   12.0860 C.ar    1  UNL1        0.0128
     32 C          62.8453   82.4658   11.7769 C.ar    1  UNL1        0.0208
     33 C          61.7616   85.9723    8.6192 C.3     1  UNL1        0.0015
     34 C          61.3847   86.0281   10.0700 C.3     1  UNL1        0.0177
@<TRIPOS>BOND
     1    33    34    1
     2     1    34    1
     3     1     2    1
     4     2     3    1
     5     3     4    1
     6     4     5    1
     7     5     7    1
     8     7    10    1
     9    10    11    1
    10    11    12   ar
    11    12    13   ar
    12    13    14   ar
    13    14    16    1
    14    16    17    1
    15    17    18    1
    16    18    19    1
    17    19    20    1
    18    20    21    1
    19    21    22    1
    20    14    15   ar
    21     7     8    1
    22     8     9    1
    23     5     6    1
    24     6    23    1
    25    23    24    2
    26    23    25    2
    27    23    26    1
    28    26    27   ar
    29    27    28   ar
    30    28    29   ar
    31    29    30    1
    32    29    31   ar
    33    31    32   ar
    34     6     1    1
    35    32    26   ar
    36     9     7    1
    37    15    11   ar
    38    22    17    1
@<TRIPOS>MOLECULE
*****
 34 38 0 0 0
SMALL
GASTEIGER

@<TRIPOS>ATOM
      1 C          63.0538   85.5058   12.4084 C.3     1  UNL1        0.0795
      2 C          63.8928   85.0824   13.5775 C.3     1  UNL1        0.0178
      3 C          64.4881   86.1161   14.4869 C.3     1  UNL1        0.0029
      4 C          64.2445   87.5732   14.2272 C.3     1  UNL1        0.0178
      5 C          63.4055   87.9966   13.0581 C.3     1  UNL1        0.0798
      6 N          62.8101   86.9629   12.1487 N.3     1  UNL1       -0.1583
      7 C          63.1618   89.4538   12.7984 C.3     1  UNL1        0.0224
      8 C          63.1222   90.7702   12.0805 C.3     1  UNL1        0.0018
      9 C          63.6649   89.5548   11.3888 C.3     1  UNL1        0.0018
     10 C          62.5741   89.8587   14.1177 C.3     1  UNL1        0.0706
     11 C          63.3880   90.6661   15.0851 C.ar    1  UNL1        0.1805
     12 N          63.0685   90.8911   16.5333 N.ar    1  UNL1       -0.0606
     13 O          64.1472   91.7543   17.1173 O.2     1  UNL1       -0.3359
     14 C          65.1335   92.0628   16.0300 C.ar    1  UNL1        0.2527
     15 N          64.6642   91.3903   14.7740 N.ar    1  UNL1       -0.1937
     16 C          66.3716   92.8974   16.1736 C.3     1  UNL1        0.1615
     17 N          67.5570   92.6386   15.2918 N.3     1  UNL1       -0.2605
     18 C          68.9334   93.0123   15.7565 C.3     1  UNL1        0.1050
     19 C          70.1188   92.7534   14.8746 C.3     1  UNL1        0.1595
     20 O          69.9279   92.1209   13.5280 O.3     1  UNL1       -0.3508
     21 C          68.5516   91.7473   13.0632 C.3     1  UNL1        0.1595
     22 C          67.3661   92.0061   13.9451 C.3     1  UNL1        0.1050
     23 S          61.9711   87.3863   10.9796 S.O2    1  UNL1        0.0632
     24 O          60.8195   87.6534   11.9029 O.2     1  UNL1       -0.1528
     25 O          62.7941   87.2453    9.9188 O.2     1  UNL1       -0.1528
     26 C          61.1320   87.8098    9.8106 C.ar    1  UNL1        0.1222
     27 C          60.6051   86.7815    8.8539 C.ar    1  UNL1        0.0208
     28 C          59.7661   87.2049    7.6849 C.ar    1  UNL1        0.0128
     29 C          59.4539   88.6566    7.4724 C.ar    1  UNL1        0.0578
     30 CL         58.6149   89.0800    6.3034 Cl      1  UNL1       -0.0822
     31 C          59.9807   89.6848    8.4290 C.ar    1  UNL1        0.0128
     32 C          60.8198   89.2614    9.5981 C.ar    1  UNL1        0.0208
     33 C          63.3303   83.7420   10.5209 C.3     1  UNL1        0.0015
     34 C          62.4584   84.4721   11.4990 C.3     1  UNL1        0.0177
@<TRIPOS>BOND
     1    33    34    1
     2     1    34    1
     3     1     2    1
     4     2     3    1
     5     3     4    1
     6     4     5    1
     7     5     7    1
     8     7    10    1
     9    10    11    1
    10    11    12   ar
    11    12    13   ar
    12    13    14   ar
    13    14    16    1
    14    16    17    1
    15    17    18    1
    16    18    19    1
    17    19    20    1
    18    20    21    1
    19    21    22    1
    20    14    15   ar
    21     7     8    1
    22     8     9    1
    23     5     6    1
    24     6    23    1
    25    23    24    2
    26    23    25    2
    27    23    26    1
    28    26    27   ar
    29    27    28   ar
    30    28    29   ar
    31    29    30    1
    32    29    31   ar
    33    31    32   ar
    34     6     1    1
    35    32    26   ar
    36     9     7    1
    37    15    11   ar
    38    22    17    1
