@<TRIPOS>MOLECULE
*****
 29 32 0 0 0
SMALL
GASTEIGER

@<TRIPOS>ATOM
      1 C          63.8219   87.4166   13.9004 C.ar    1  UNL1        0.0811
      2 C          64.4818   88.5098   14.6875 C.ar    1  UNL1        0.0338
      3 C          64.4781   89.9163   14.1664 C.ar    1  UNL1        0.0742
      4 C          63.8145   90.2297   12.8582 C.ar    1  UNL1        0.0962
      5 N          63.1547   89.1366   12.0711 N.ar    1  UNL1       -0.2907
      6 C          62.4268   89.1430   10.7595 C.ar    1  UNL1        0.0567
      7 C          62.1872   90.3416    9.8901 C.3     1  UNL1        0.0517
      8 C          61.9807   87.7404   10.4700 C.ar    1  UNL1        0.0730
      9 C          61.2166   87.2903    9.2602 C.3     1  UNL1        0.0534
     10 N          62.4328   86.8671   11.6026 N.ar    1  UNL1       -0.2299
     11 C          63.1584   87.7300   12.5922 C.ar    1  UNL1        0.1604
     12 N          65.1379   91.0095   14.9535 N.am    1  UNL1       -0.2400
     13 C          66.4922   91.5957   14.6844 C.3     1  UNL1        0.1210
     14 C          66.7506   92.6569   15.7125 C.3     1  UNL1        0.1128
     15 N          65.5560   92.7266   16.6171 N.am    1  UNL1       -0.2867
     16 C          64.5594   91.7085   16.1480 C.2     1  UNL1        0.3079
     17 O          63.2194   91.4370   16.7651 O.2     1  UNL1       -0.2522
     18 H          65.4455   93.3340   17.3840 H       1  UNL1        0.1510
     19 N          63.8256   86.0100   14.4215 N.pl3   1  UNL1       -0.3267
     20 H          63.4838   85.8188   15.3248 H       1  UNL1        0.1472
     21 C          64.3499   84.8948   13.5663 C.3     1  UNL1        0.1137
     22 C          64.5079   83.3285   11.0125 C.3     1  UNL1        0.0307
     23 C          63.6346   82.8488   12.1338 C.ar    1  UNL1       -0.0245
     24 C          62.8403   81.5859   11.9782 C.ar    1  UNL1       -0.0045
     25 C          61.9671   81.1061   13.0994 C.ar    1  UNL1       -0.0007
     26 C          61.8881   81.8892   14.3763 C.ar    1  UNL1       -0.0045
     27 C          62.6824   83.1521   14.5320 C.ar    1  UNL1       -0.0245
     28 C          62.6034   83.9352   15.8089 C.3     1  UNL1        0.0307
     29 C          63.5557   83.6319   13.4107 C.ar    1  UNL1       -0.0105
@<TRIPOS>BOND
     1    22    23    1
     2    23    24   ar
     3    24    25   ar
     4    25    26   ar
     5    26    27   ar
     6    27    28    1
     7    27    29   ar
     8    29    21    1
     9    21    19    1
    10    19     1    1
    11     1     2   ar
    12     2     3   ar
    13     3    12    1
    14    12    13    1
    15    13    14    1
    16    14    15    1
    17    15    16   am
    18    16    17    2
    19     3     4   ar
    20     4     5   ar
    21     5     6   ar
    22     6     7    1
    23     6     8   ar
    24     8     9    1
    25     8    10   ar
    26    10    11   ar
    27    29    23   ar
    28    11     1   ar
    29    16    12   am
    30    11     5   ar
    31    19    20    1
    32    15    18    1
@<TRIPOS>MOLECULE
*****
 29 32 0 0 0
SMALL
GASTEIGER

@<TRIPOS>ATOM
      1 C          63.0078   87.7459   12.3998 C.ar    1  UNL1        0.0811
      2 C          62.1504   88.0487   11.2068 C.ar    1  UNL1        0.0338
      3 C          61.4838   86.9320   10.4596 C.ar    1  UNL1        0.0742
      4 C          61.6745   85.5124   10.9052 C.ar    1  UNL1        0.0962
      5 N          62.5318   85.2097   12.0982 N.ar    1  UNL1       -0.2907
      6 C          62.9013   83.9189   12.7671 C.ar    1  UNL1        0.0567
      7 C          62.4543   82.5496   12.3487 C.3     1  UNL1        0.0517
      8 C          63.7964   84.2379   13.9277 C.ar    1  UNL1        0.0730
      9 C          64.4015   83.2435   14.8738 C.3     1  UNL1        0.0534
     10 N          63.9801   85.7258   13.9762 N.ar    1  UNL1       -0.2299
     11 C          63.1985   86.3264   12.8455 C.ar    1  UNL1        0.1604
     12 N          60.6263   87.2347    9.2665 N.am    1  UNL1       -0.2400
     13 C          60.2267   86.2608    8.1980 C.3     1  UNL1        0.1210
     14 C          59.3714   86.9887    7.2037 C.3     1  UNL1        0.1128
     15 N          59.2425   88.4126    7.6577 N.am    1  UNL1       -0.2867
     16 C          60.0181   88.5646    8.9326 C.2     1  UNL1        0.3079
     17 O          60.1604   89.8251    9.7331 O.2     1  UNL1       -0.2522
     18 H          58.7375   89.1227    7.1994 H       1  UNL1        0.1510
     19 N          63.6745   88.8626   13.1471 N.pl3   1  UNL1       -0.3267
     20 H          64.3787   88.6628   13.8055 H       1  UNL1        0.1472
     21 C          63.2683   90.2837   12.8913 C.3     1  UNL1        0.1137
     22 C          65.3140   91.2335   14.8694 C.3     1  UNL1        0.0307
     23 C          65.3194   91.7701   13.4687 C.ar    1  UNL1       -0.0245
     24 C          66.3477   92.7816   13.0570 C.ar    1  UNL1       -0.0045
     25 C          66.3531   93.3182   11.6564 C.ar    1  UNL1       -0.0007
     26 C          65.3302   92.8434   10.6673 C.ar    1  UNL1       -0.0045
     27 C          64.3020   91.8319   11.0790 C.ar    1  UNL1       -0.0245
     28 C          63.2791   91.3570   10.0899 C.3     1  UNL1        0.0307
     29 C          64.2965   91.2952   12.4797 C.ar    1  UNL1       -0.0105
@<TRIPOS>BOND
     1    22    23    1
     2    23    24   ar
     3    24    25   ar
     4    25    26   ar
     5    26    27   ar
     6    27    28    1
     7    27    29   ar
     8    29    21    1
     9    21    19    1
    10    19     1    1
    11     1     2   ar
    12     2     3   ar
    13     3    12    1
    14    12    13    1
    15    13    14    1
    16    14    15    1
    17    15    16   am
    18    16    17    2
    19     3     4   ar
    20     4     5   ar
    21     5     6   ar
    22     6     7    1
    23     6     8   ar
    24     8     9    1
    25     8    10   ar
    26    10    11   ar
    27    29    23   ar
    28    11     1   ar
    29    16    12   am
    30    11     5   ar
    31    19    20    1
    32    15    18    1
@<TRIPOS>MOLECULE
*****
 29 32 0 0 0
SMALL
GASTEIGER

@<TRIPOS>ATOM
      1 C          63.0076   87.7372   12.3996 C.ar    1  UNL1        0.0811
      2 C          62.1512   88.0398   11.2060 C.ar    1  UNL1        0.0338
      3 C          61.4827   86.9232   10.4602 C.ar    1  UNL1        0.0742
      4 C          61.6706   85.5040   10.9080 C.ar    1  UNL1        0.0962
      5 N          62.5271   85.2014   12.1016 N.ar    1  UNL1       -0.2907
      6 C          62.8940   83.9109   12.7724 C.ar    1  UNL1        0.0567
      7 C          62.4445   82.5418   12.3559 C.3     1  UNL1        0.0517
      8 C          63.7893   84.2299   13.9329 C.ar    1  UNL1        0.0730
      9 C          64.3923   83.2358   14.8806 C.3     1  UNL1        0.0534
     10 N          63.9757   85.7176   13.9793 N.ar    1  UNL1       -0.2299
     11 C          63.1956   86.3179   12.8474 C.ar    1  UNL1        0.1604
     12 N          60.6261   87.2258    9.2664 N.am    1  UNL1       -0.2400
     13 C          60.2294   86.2524    8.1964 C.3     1  UNL1        0.1210
     14 C          59.3740   86.9800    7.2019 C.3     1  UNL1        0.1128
     15 N          59.2422   88.4031    7.6573 N.am    1  UNL1       -0.2867
     16 C          60.0160   88.5551    8.9333 C.2     1  UNL1        0.3079
     17 O          60.1553   89.8150    9.7352 O.2     1  UNL1       -0.2522
     18 H          58.7365   89.1129    7.1992 H       1  UNL1        0.1510
     19 N          63.6762   88.8537   13.1455 N.pl3   1  UNL1       -0.3267
     20 H          64.3842   88.6540   13.7998 H       1  UNL1        0.1472
     21 C          63.2660   90.2746   12.8945 C.3     1  UNL1        0.1137
     22 C          63.2730   91.3494   10.0937 C.3     1  UNL1        0.0307
     23 C          64.2944   91.8270   11.0828 C.ar    1  UNL1       -0.0245
     24 C          65.3194   92.8421   10.6715 C.ar    1  UNL1       -0.0045
     25 C          66.3409   93.3197   11.6607 C.ar    1  UNL1       -0.0007
     26 C          66.3374   92.7823   13.0611 C.ar    1  UNL1       -0.0045
     27 C          65.3125   91.7673   13.4724 C.ar    1  UNL1       -0.0245
     28 C          65.3090   91.2299   14.8728 C.3     1  UNL1        0.0307
     29 C          64.2910   91.2896   12.4832 C.ar    1  UNL1       -0.0105
@<TRIPOS>BOND
     1    22    23    1
     2    23    24   ar
     3    24    25   ar
     4    25    26   ar
     5    26    27   ar
     6    27    28    1
     7    27    29   ar
     8    29    21    1
     9    21    19    1
    10    19     1    1
    11     1     2   ar
    12     2     3   ar
    13     3    12    1
    14    12    13    1
    15    13    14    1
    16    14    15    1
    17    15    16   am
    18    16    17    2
    19     3     4   ar
    20     4     5   ar
    21     5     6   ar
    22     6     7    1
    23     6     8   ar
    24     8     9    1
    25     8    10   ar
    26    10    11   ar
    27    29    23   ar
    28    11     1   ar
    29    16    12   am
    30    11     5   ar
    31    19    20    1
    32    15    18    1
@<TRIPOS>MOLECULE
*****
 29 32 0 0 0
SMALL
GASTEIGER

@<TRIPOS>ATOM
      1 C          63.0177   86.6440   12.6028 C.ar    1  UNL1        0.0811
      2 C          62.2075   86.2150   11.4156 C.ar    1  UNL1        0.0338
      3 C          61.8032   87.2220   10.3801 C.ar    1  UNL1        0.0742
      4 C          62.2089   88.6581   10.5318 C.ar    1  UNL1        0.0962
      5 N          63.0191   89.0872   11.7191 N.ar    1  UNL1       -0.2907
      6 C          63.5617   90.4224   12.1344 C.ar    1  UNL1        0.0567
      7 C          63.3941   91.7129   11.3884 C.3     1  UNL1        0.0517
      8 C          64.3015   90.2407   13.4266 C.ar    1  UNL1        0.0730
      9 C          65.0035   91.3175   14.1996 C.3     1  UNL1        0.0534
     10 N          64.2160   88.7930   13.8099 N.ar    1  UNL1       -0.2299
     11 C          63.4234   88.0801   12.7546 C.ar    1  UNL1        0.1604
     12 N          60.9930   86.7930    9.1928 N.am    1  UNL1       -0.2400
     13 C          59.6028   87.2493    8.8626 C.3     1  UNL1        0.1210
     14 C          59.1815   86.5707    7.5930 C.3     1  UNL1        0.1128
     15 N          60.3114   85.6950    7.1384 N.am    1  UNL1       -0.2867
     16 C          61.4309   85.8324    8.1271 C.2     1  UNL1        0.3079
     17 O          62.7559   85.1322    8.0617 O.2     1  UNL1       -0.2522
     18 H          60.3171   85.1294    6.3326 H       1  UNL1        0.1510
     19 N          63.4221   85.6369   13.6384 N.pl3   1  UNL1       -0.3267
     20 H          63.1932   85.7846   14.5845 H       1  UNL1        0.1472
     21 C          64.1752   84.4049   13.2325 C.3     1  UNL1        0.1137
     22 C          64.3809   82.7180   10.7602 C.3     1  UNL1        0.0307
     23 C          63.5729   82.2393   11.9297 C.ar    1  UNL1       -0.0245
     24 C          62.8676   80.9170   11.8631 C.ar    1  UNL1       -0.0045
     25 C          62.0596   80.4382   13.0326 C.ar    1  UNL1       -0.0007
     26 C          61.9567   81.2817   14.2687 C.ar    1  UNL1       -0.0045
     27 C          62.6619   82.6038   14.3354 C.ar    1  UNL1       -0.0245
     28 C          62.5590   83.4473   15.5715 C.3     1  UNL1        0.0307
     29 C          63.4700   83.0827   13.1658 C.ar    1  UNL1       -0.0105
@<TRIPOS>BOND
     1    22    23    1
     2    23    24   ar
     3    24    25   ar
     4    25    26   ar
     5    26    27   ar
     6    27    28    1
     7    27    29   ar
     8    29    21    1
     9    21    19    1
    10    19     1    1
    11     1     2   ar
    12     2     3   ar
    13     3    12    1
    14    12    13    1
    15    13    14    1
    16    14    15    1
    17    15    16   am
    18    16    17    2
    19     3     4   ar
    20     4     5   ar
    21     5     6   ar
    22     6     7    1
    23     6     8   ar
    24     8     9    1
    25     8    10   ar
    26    10    11   ar
    27    29    23   ar
    28    11     1   ar
    29    16    12   am
    30    11     5   ar
    31    19    20    1
    32    15    18    1
@<TRIPOS>MOLECULE
*****
 29 32 0 0 0
SMALL
GASTEIGER

@<TRIPOS>ATOM
      1 C          63.0794   86.6487   12.6400 C.ar    1  UNL1        0.0811
      2 C          62.2735   86.2176   11.4506 C.ar    1  UNL1        0.0338
      3 C          61.8562   87.2263   10.4219 C.ar    1  UNL1        0.0742
      4 C          62.2447   88.6662   10.5826 C.ar    1  UNL1        0.0962
      5 N          63.0506   89.0973   11.7720 N.ar    1  UNL1       -0.2907
      6 C          63.5775   90.4363   12.1954 C.ar    1  UNL1        0.0567
      7 C          63.3937   91.7295   11.4579 C.3     1  UNL1        0.0517
      8 C          64.3205   90.2552   13.4859 C.ar    1  UNL1        0.0730
      9 C          65.0102   91.3354   14.2653 C.3     1  UNL1        0.0534
     10 N          64.2528   88.8042   13.8600 N.ar    1  UNL1       -0.2299
     11 C          63.4679   88.0886   12.8007 C.ar    1  UNL1        0.1604
     12 N          61.0503   86.7952    9.2325 N.am    1  UNL1       -0.2400
     13 C          59.6518   87.2314    8.9101 C.3     1  UNL1        0.1210
     14 C          59.2386   86.5580    7.6350 C.3     1  UNL1        0.1128
     15 N          60.3817   85.7056    7.1694 N.am    1  UNL1       -0.2867
     16 C          61.5014   85.8523    8.1567 C.2     1  UNL1        0.3079
     17 O          62.8376   85.1749    8.0814 O.2     1  UNL1       -0.2522
     18 H          60.3948   85.1479    6.3582 H       1  UNL1        0.1510
     19 N          63.4968   85.6399   13.6688 N.pl3   1  UNL1       -0.3267
     20 H          63.2899   85.7917   14.6193 H       1  UNL1        0.1472
     21 C          64.2293   84.4000   13.2493 C.3     1  UNL1        0.1137
     22 C          62.6057   83.4533   15.5876 C.3     1  UNL1        0.0307
     23 C          62.6926   82.6155   14.3465 C.ar    1  UNL1       -0.0245
     24 C          61.9676   81.3042   14.2746 C.ar    1  UNL1       -0.0045
     25 C          62.0545   80.4663   13.0335 C.ar    1  UNL1       -0.0007
     26 C          62.8663   80.9396   11.8643 C.ar    1  UNL1       -0.0045
     27 C          63.5912   82.2508   11.9362 C.ar    1  UNL1       -0.0245
     28 C          64.4030   82.7242   10.7671 C.3     1  UNL1        0.0307
     29 C          63.5044   83.0888   13.1774 C.ar    1  UNL1       -0.0105
@<TRIPOS>BOND
     1    22    23    1
     2    23    24   ar
     3    24    25   ar
     4    25    26   ar
     5    26    27   ar
     6    27    28    1
     7    27    29   ar
     8    29    21    1
     9    21    19    1
    10    19     1    1
    11     1     2   ar
    12     2     3   ar
    13     3    12    1
    14    12    13    1
    15    13    14    1
    16    14    15    1
    17    15    16   am
    18    16    17    2
    19     3     4   ar
    20     4     5   ar
    21     5     6   ar
    22     6     7    1
    23     6     8   ar
    24     8     9    1
    25     8    10   ar
    26    10    11   ar
    27    29    23   ar
    28    11     1   ar
    29    16    12   am
    30    11     5   ar
    31    19    20    1
    32    15    18    1
@<TRIPOS>MOLECULE
*****
 29 32 0 0 0
SMALL
GASTEIGER

@<TRIPOS>ATOM
      1 C          62.2227   88.3677   11.4827 C.ar    1  UNL1        0.0811
      2 C          62.7882   87.1501   12.1516 C.ar    1  UNL1        0.0338
      3 C          62.5392   85.7905   11.5689 C.ar    1  UNL1        0.0742
      4 C          61.7247   85.6486   10.3173 C.ar    1  UNL1        0.0962
      5 N          61.1593   86.8663    9.6484 N.ar    1  UNL1       -0.2907
      6 C          60.3246   87.0369    8.4138 C.ar    1  UNL1        0.0567
      7 C          59.8416   85.9357    7.5170 C.3     1  UNL1        0.0517
      8 C          60.0577   88.5019    8.2335 C.ar    1  UNL1        0.0730
      9 C          59.2610   89.1230    7.1246 C.3     1  UNL1        0.0534
     10 N          60.7275   89.2367    9.3566 N.ar    1  UNL1       -0.2299
     11 C          61.4083   88.2258   10.2311 C.ar    1  UNL1        0.1604
     12 N          63.1047   84.5728   12.2378 N.am    1  UNL1       -0.2400
     13 C          63.9901   83.5457   11.5967 C.3     1  UNL1        0.1210
     14 C          64.3167   82.5065   12.6280 C.3     1  UNL1        0.1128
     15 N          63.6330   82.8913   13.9065 N.am    1  UNL1       -0.2867
     16 C          62.8840   84.1684   13.6654 C.2     1  UNL1        0.3079
     17 O          62.0591   84.9107   14.6746 O.2     1  UNL1       -0.2522
     18 H          63.6695   82.3932   14.7549 H       1  UNL1        0.1510
     19 N          62.4717   89.7274   12.0653 N.pl3   1  UNL1       -0.3267
     20 H          61.7998   90.4390   11.9591 H       1  UNL1        0.1472
     21 C          63.7445   90.0027   12.8098 C.3     1  UNL1        0.1137
     22 C          63.5231   91.3196   10.1234 C.3     1  UNL1        0.0307
     23 C          64.4200   91.9046   11.1738 C.ar    1  UNL1       -0.0245
     24 C          65.2062   93.1480   10.8810 C.ar    1  UNL1       -0.0045
     25 C          66.1032   93.7330   11.9314 C.ar    1  UNL1       -0.0007
     26 C          66.2139   93.0745   13.2745 C.ar    1  UNL1       -0.0045
     27 C          65.4277   91.8311   13.5674 C.ar    1  UNL1       -0.0245
     28 C          65.5384   91.1726   14.9105 C.3     1  UNL1        0.0307
     29 C          64.5307   91.2461   12.5170 C.ar    1  UNL1       -0.0105
@<TRIPOS>BOND
     1    22    23    1
     2    23    24   ar
     3    24    25   ar
     4    25    26   ar
     5    26    27   ar
     6    27    28    1
     7    27    29   ar
     8    29    21    1
     9    21    19    1
    10    19     1    1
    11     1     2   ar
    12     2     3   ar
    13     3    12    1
    14    12    13    1
    15    13    14    1
    16    14    15    1
    17    15    16   am
    18    16    17    2
    19     3     4   ar
    20     4     5   ar
    21     5     6   ar
    22     6     7    1
    23     6     8   ar
    24     8     9    1
    25     8    10   ar
    26    10    11   ar
    27    29    23   ar
    28    11     1   ar
    29    16    12   am
    30    11     5   ar
    31    19    20    1
    32    15    18    1
@<TRIPOS>MOLECULE
*****
 29 32 0 0 0
SMALL
GASTEIGER

@<TRIPOS>ATOM
      1 C          62.1651   88.4863   11.4094 C.ar    1  UNL1        0.0811
      2 C          62.7346   87.2895   12.1116 C.ar    1  UNL1        0.0338
      3 C          62.4950   85.9140   11.5634 C.ar    1  UNL1        0.0742
      4 C          61.6859   85.7353   10.3130 C.ar    1  UNL1        0.0962
      5 N          61.1163   86.9322    9.6109 N.ar    1  UNL1       -0.2907
      6 C          60.2852   87.0663    8.3694 C.ar    1  UNL1        0.0567
      7 C          59.8114   85.9398    7.4997 C.3     1  UNL1        0.0517
      8 C          60.0112   88.5247    8.1503 C.ar    1  UNL1        0.0730
      9 C          59.2151   89.1126    7.0230 C.3     1  UNL1        0.0534
     10 N          60.6729   89.2920    9.2564 N.ar    1  UNL1       -0.2299
     11 C          61.3559   88.3077   10.1591 C.ar    1  UNL1        0.1604
     12 N          63.0646   84.7170   12.2655 N.am    1  UNL1       -0.2400
     13 C          62.9726   84.4303   13.7350 C.3     1  UNL1        0.1210
     14 C          63.6773   83.1327   13.9991 C.3     1  UNL1        0.1128
     15 N          64.2048   82.6175   12.6928 N.am    1  UNL1       -0.2867
     16 C          63.8261   83.5966   11.6214 C.2     1  UNL1        0.3079
     17 O          64.1517   83.4764   10.1622 O.2     1  UNL1       -0.2522
     18 H          64.7107   81.7831   12.5617 H       1  UNL1        0.1510
     19 N          62.4047   89.8619   11.9576 N.pl3   1  UNL1       -0.3267
     20 H          61.7625   90.5846   11.7717 H       1  UNL1        0.1472
     21 C          63.6226   90.1363   12.7890 C.3     1  UNL1        0.1137
     22 C          65.5342   91.1903   14.8469 C.3     1  UNL1        0.0307
     23 C          65.4604   91.8323   13.4933 C.ar    1  UNL1       -0.0245
     24 C          66.3425   93.0013   13.1685 C.ar    1  UNL1       -0.0045
     25 C          66.2687   93.6432   11.8148 C.ar    1  UNL1       -0.0007
     26 C          65.3129   93.1162   10.7859 C.ar    1  UNL1       -0.0045
     27 C          64.4309   91.9473   11.1106 C.ar    1  UNL1       -0.0245
     28 C          63.4751   91.4202   10.0817 C.3     1  UNL1        0.0307
     29 C          64.5047   91.3052   12.4643 C.ar    1  UNL1       -0.0105
@<TRIPOS>BOND
     1    22    23    1
     2    23    24   ar
     3    24    25   ar
     4    25    26   ar
     5    26    27   ar
     6    27    28    1
     7    27    29   ar
     8    29    21    1
     9    21    19    1
    10    19     1    1
    11     1     2   ar
    12     2     3   ar
    13     3    12    1
    14    12    13    1
    15    13    14    1
    16    14    15    1
    17    15    16   am
    18    16    17    2
    19     3     4   ar
    20     4     5   ar
    21     5     6   ar
    22     6     7    1
    23     6     8   ar
    24     8     9    1
    25     8    10   ar
    26    10    11   ar
    27    29    23   ar
    28    11     1   ar
    29    16    12   am
    30    11     5   ar
    31    19    20    1
    32    15    18    1
@<TRIPOS>MOLECULE
*****
 29 32 0 0 0
SMALL
GASTEIGER

@<TRIPOS>ATOM
      1 C          63.7843   87.2220   13.8783 C.ar    1  UNL1        0.0811
      2 C          64.3141   88.3613   14.6974 C.ar    1  UNL1        0.0338
      3 C          64.1882   89.7688   14.1944 C.ar    1  UNL1        0.0742
      4 C          63.5324   90.0370   12.8723 C.ar    1  UNL1        0.0962
      5 N          63.0026   88.8976   12.0531 N.ar    1  UNL1       -0.2907
      6 C          62.3127   88.8541   10.7219 C.ar    1  UNL1        0.0567
      7 C          61.9814   90.0374    9.8616 C.3     1  UNL1        0.0517
      8 C          62.0122   87.4197   10.4022 C.ar    1  UNL1        0.0730
      9 C          61.3276   86.9167    9.1658 C.3     1  UNL1        0.0534
     10 N          62.5164   86.5767   11.5357 N.ar    1  UNL1       -0.2299
     11 C          63.1285   87.4901   12.5561 C.ar    1  UNL1        0.1604
     12 N          64.7181   90.9083   15.0136 N.am    1  UNL1       -0.2400
     13 C          64.1469   91.4031   16.3094 C.3     1  UNL1        0.1210
     14 C          64.9879   92.5535   16.7774 C.3     1  UNL1        0.1128
     15 N          66.0789   92.7698   15.7708 N.am    1  UNL1       -0.2867
     16 C          65.9121   91.7530   14.6808 C.2     1  UNL1        0.3079
     17 O          66.7859   91.6066   13.4704 O.2     1  UNL1       -0.2522
     18 H          66.7812   93.4583   15.8175 H       1  UNL1        0.1510
     19 N          63.9102   85.8144   14.3812 N.pl3   1  UNL1       -0.3267
     20 H          63.6884   85.6044   15.3171 H       1  UNL1        0.1472
     21 C          64.3741   84.7268   13.4582 C.3     1  UNL1        0.1137
     22 C          62.6523   83.8009   15.7337 C.3     1  UNL1        0.0307
     23 C          62.7176   82.9987   14.4680 C.ar    1  UNL1       -0.0245
     24 C          61.9220   81.7335   14.3400 C.ar    1  UNL1       -0.0045
     25 C          61.9874   80.9313   13.0742 C.ar    1  UNL1       -0.0007
     26 C          62.8483   81.3942   11.9365 C.ar    1  UNL1       -0.0045
     27 C          63.6438   82.6594   12.0644 C.ar    1  UNL1       -0.0245
     28 C          64.5047   83.1223   10.9266 C.3     1  UNL1        0.0307
     29 C          63.5785   83.4617   13.3302 C.ar    1  UNL1       -0.0105
@<TRIPOS>BOND
     1    22    23    1
     2    23    24   ar
     3    24    25   ar
     4    25    26   ar
     5    26    27   ar
     6    27    28    1
     7    27    29   ar
     8    29    21    1
     9    21    19    1
    10    19     1    1
    11     1     2   ar
    12     2     3   ar
    13     3    12    1
    14    12    13    1
    15    13    14    1
    16    14    15    1
    17    15    16   am
    18    16    17    2
    19     3     4   ar
    20     4     5   ar
    21     5     6   ar
    22     6     7    1
    23     6     8   ar
    24     8     9    1
    25     8    10   ar
    26    10    11   ar
    27    29    23   ar
    28    11     1   ar
    29    16    12   am
    30    11     5   ar
    31    19    20    1
    32    15    18    1
@<TRIPOS>MOLECULE
*****
 29 32 0 0 0
SMALL
GASTEIGER

@<TRIPOS>ATOM
      1 C          63.3190   90.4509   11.4137 C.ar    1  UNL1        0.0811
      2 C          63.1221   89.5436   12.5918 C.ar    1  UNL1        0.0338
      3 C          63.8732   89.7948   13.8656 C.ar    1  UNL1        0.0742
      4 C          64.8212   90.9533   13.9613 C.ar    1  UNL1        0.0962
      5 N          65.0181   91.8606   12.7832 N.ar    1  UNL1       -0.2907
      6 C          65.8788   93.0726   12.5825 C.ar    1  UNL1        0.0567
      7 C          66.7974   93.6800   13.6009 C.3     1  UNL1        0.0517
      8 C          65.6597   93.5704   11.1846 C.ar    1  UNL1        0.0730
      9 C          66.3208   94.7632   10.5596 C.3     1  UNL1        0.0534
     10 N          64.6635   92.6662   10.5213 N.ar    1  UNL1       -0.2299
     11 C          64.2670   91.6094   11.5094 C.ar    1  UNL1        0.1604
     12 N          63.6763   88.8875   15.0438 N.am    1  UNL1       -0.2400
     13 C          63.8771   87.4011   15.0552 C.3     1  UNL1        0.1210
     14 C          63.5690   86.9023   16.4359 C.3     1  UNL1        0.1128
     15 N          63.1776   88.0805   17.2778 N.am    1  UNL1       -0.2867
     16 C          63.2439   89.3074   16.4174 C.2     1  UNL1        0.3079
     17 O          62.9325   90.7083   16.8540 O.2     1  UNL1       -0.2522
     18 H          62.9220   88.0533   18.2282 H       1  UNL1        0.1510
     19 N          62.5679   90.1997   10.1397 N.pl3   1  UNL1       -0.3267
     20 H          62.9813   90.4181    9.2733 H       1  UNL1        0.1472
     21 C          61.1869   89.6159   10.1859 C.3     1  UNL1        0.1137
     22 C          62.1999   86.9420   11.0936 C.3     1  UNL1        0.0307
     23 C          61.3731   87.0469    9.8465 C.ar    1  UNL1       -0.0245
     24 C          61.0527   85.8148    9.0532 C.ar    1  UNL1       -0.0045
     25 C          60.2259   85.9197    7.8061 C.ar    1  UNL1       -0.0007
     26 C          59.7194   87.2566    7.3522 C.ar    1  UNL1       -0.0045
     27 C          60.0397   88.4887    8.1455 C.ar    1  UNL1       -0.0245
     28 C          59.5332   89.8257    7.6917 C.3     1  UNL1        0.0307
     29 C          60.8666   88.3839    9.3927 C.ar    1  UNL1       -0.0105
@<TRIPOS>BOND
     1    22    23    1
     2    23    24   ar
     3    24    25   ar
     4    25    26   ar
     5    26    27   ar
     6    27    28    1
     7    27    29   ar
     8    29    21    1
     9    21    19    1
    10    19     1    1
    11     1     2   ar
    12     2     3   ar
    13     3    12    1
    14    12    13    1
    15    13    14    1
    16    14    15    1
    17    15    16   am
    18    16    17    2
    19     3     4   ar
    20     4     5   ar
    21     5     6   ar
    22     6     7    1
    23     6     8   ar
    24     8     9    1
    25     8    10   ar
    26    10    11   ar
    27    29    23   ar
    28    11     1   ar
    29    16    12   am
    30    11     5   ar
    31    19    20    1
    32    15    18    1
