@<TRIPOS>MOLECULE
*****
 30 32 0 0 0
SMALL
GASTEIGER

@<TRIPOS>ATOM
      1 C          62.4964   89.6311   11.9108 C.ar    1  UNL1        0.0577
      2 C          63.4457   89.7354   13.0676 C.ar    1  UNL1        0.0462
      3 C          64.5303   90.7716   13.0567 C.ar    1  UNL1        0.1602
      4 F          65.4795   90.8758   14.2134 F       1  UNL1       -0.2027
      5 C          64.6656   91.7034   11.8890 C.ar    1  UNL1        0.1534
      6 C          63.7163   91.5991   10.7323 C.ar    1  UNL1        0.0351
      7 C          62.6317   90.5630   10.7432 C.ar    1  UNL1        0.0722
      8 CL         61.6825   90.4587    9.5865 Cl      1  UNL1       -0.0809
      9 S          65.7501   92.7396   11.8782 S.O2    1  UNL1        0.0772
     10 O          65.3652   93.1571   13.2665 O.2     1  UNL1       -0.1498
     11 O          66.1350   92.3221   10.4898 O.2     1  UNL1       -0.1498
     12 N          66.8347   93.7757   11.8673 N.pl3   1  UNL1       -0.1936
     13 H          67.5441   93.7529   12.5495 H       1  UNL1        0.1758
     14 C          66.8383   94.8467   10.8169 C.ar    1  UNL1        0.1786
     15 N          67.8198   94.9727    9.6896 N.ar    1  UNL1       -0.2214
     16 C          67.4492   96.1834    8.8855 C.ar    1  UNL1        0.1079
     17 C          66.2386   96.8057    9.5158 C.ar    1  UNL1        0.0588
     18 S          65.8611   95.9795   10.7095 S.2     1  UNL1       -0.0497
     19 N          61.4119   88.5950   11.9217 N.pl3   1  UNL1       -0.3319
     20 H          60.7641   88.5682   12.6625 H       1  UNL1        0.1468
     21 C          61.3143   87.5997   10.8038 C.3     1  UNL1        0.0870
     22 N          64.3760   82.4480   11.0979 N.2     1  UNL1       -0.0917
     23 C          63.6105   83.7359   11.0244 C.2     1  UNL1        0.0748
     24 C          63.1884   84.4305   12.2850 C.3     1  UNL1        0.0447
     25 C          62.4230   85.7184   12.2115 C.3     1  UNL1        0.0078
     26 C          62.0797   86.3117   10.8773 C.3     1  UNL1        0.0203
     27 C          62.5019   85.6171    9.6167 C.3     1  UNL1        0.0078
     28 C          63.2673   84.3292    9.6902 C.3     1  UNL1        0.0447
     29 C          63.6691   81.1350   13.2255 C.3     1  UNL1        0.2885
     30 O          64.7192   81.8547   12.4321 O.2     1  UNL1       -0.3737
@<TRIPOS>BOND
     1    29    30    1
     2    30    22    1
     3    22    23    2
     4    23    24    1
     5    24    25    1
     6    25    26    1
     7    26    21    1
     8    21    19    1
     9    19     1    1
    10     1     2   ar
    11     2     3   ar
    12     3     4    1
    13     3     5   ar
    14     5     9    1
    15     9    10    2
    16     9    11    2
    17     9    12    1
    18    12    14    1
    19    14    15   ar
    20    15    16   ar
    21    16    17   ar
    22    17    18   ar
    23     5     6   ar
    24     6     7   ar
    25     7     8    1
    26    26    27    1
    27    27    28    1
    28    28    23    1
    29     7     1   ar
    30    18    14   ar
    31    19    20    1
    32    12    13    1
@<TRIPOS>MOLECULE
*****
 30 32 0 0 0
SMALL
GASTEIGER

@<TRIPOS>ATOM
      1 C          63.5396   89.3258   15.5911 C.ar    1  UNL1        0.0577
      2 C          63.2664   88.5564   16.8495 C.ar    1  UNL1        0.0462
      3 C          63.2983   87.0568   16.8336 C.ar    1  UNL1        0.1602
      4 F          63.0252   86.2875   18.0919 F       1  UNL1       -0.2027
      5 C          63.6035   86.3266   15.5593 C.ar    1  UNL1        0.1534
      6 C          63.8767   87.0960   14.3010 C.ar    1  UNL1        0.0351
      7 C          63.8447   88.5956   14.3169 C.ar    1  UNL1        0.0722
      8 CL         64.1179   89.3650   13.0586 Cl      1  UNL1       -0.0809
      9 S          63.6355   84.8271   15.5434 S.O2    1  UNL1        0.0772
     10 O          62.1783   84.7922   15.8974 O.2     1  UNL1       -0.1498
     11 O          65.0927   84.8619   15.1894 O.2     1  UNL1       -0.1498
     12 N          63.6674   83.3275   15.5275 N.pl3   1  UNL1       -0.1936
     13 H          63.9700   82.8331   16.3233 H       1  UNL1        0.1758
     14 C          63.2384   82.5812   14.2990 C.ar    1  UNL1        0.1786
     15 N          62.8995   81.1217   14.2275 N.ar    1  UNL1       -0.2214
     16 C          62.5247   80.8017   12.8108 C.ar    1  UNL1        0.1079
     17 C          62.6319   82.0635   12.0067 C.ar    1  UNL1        0.0588
     18 S          63.0731   83.1632   12.9265 S.2     1  UNL1       -0.0497
     19 N          63.5076   90.8254   15.6070 N.pl3   1  UNL1       -0.3319
     20 H          62.6474   91.3001   15.5442 H       1  UNL1        0.1468
     21 C          64.7862   91.6017   15.7186 C.3     1  UNL1        0.0870
     22 N          68.1776   92.5119   10.8534 N.2     1  UNL1       -0.0917
     23 C          67.3297   92.2843   12.0697 C.2     1  UNL1        0.0748
     24 C          65.8465   92.4966   12.0004 C.3     1  UNL1        0.0447
     25 C          64.9986   92.2690   13.2167 C.3     1  UNL1        0.0078
     26 C          65.6340   91.8292   14.5023 C.3     1  UNL1        0.0203
     27 C          67.1173   91.6169   14.5716 C.3     1  UNL1        0.0078
     28 C          67.9651   91.8445   13.3553 C.3     1  UNL1        0.0447
     29 C          67.8882   94.2871    8.9786 C.3     1  UNL1        0.2885
     30 O          67.5422   92.9517    9.5678 O.2     1  UNL1       -0.3737
@<TRIPOS>BOND
     1    29    30    1
     2    30    22    1
     3    22    23    2
     4    23    24    1
     5    24    25    1
     6    25    26    1
     7    26    21    1
     8    21    19    1
     9    19     1    1
    10     1     2   ar
    11     2     3   ar
    12     3     4    1
    13     3     5   ar
    14     5     9    1
    15     9    10    2
    16     9    11    2
    17     9    12    1
    18    12    14    1
    19    14    15   ar
    20    15    16   ar
    21    16    17   ar
    22    17    18   ar
    23     5     6   ar
    24     6     7   ar
    25     7     8    1
    26    26    27    1
    27    27    28    1
    28    28    23    1
    29     7     1   ar
    30    18    14   ar
    31    19    20    1
    32    12    13    1
@<TRIPOS>MOLECULE
*****
 30 32 0 0 0
SMALL
GASTEIGER

@<TRIPOS>ATOM
      1 C          62.8730   89.4318   11.9590 C.ar    1  UNL1        0.0577
      2 C          62.8518   90.4401   10.8486 C.ar    1  UNL1        0.0462
      3 C          63.8269   91.5799   10.8518 C.ar    1  UNL1        0.1602
      4 F          63.8057   92.5882    9.7415 F       1  UNL1       -0.2027
      5 C          64.8232   91.7114   11.9655 C.ar    1  UNL1        0.1534
      6 C          64.8443   90.7031   13.0759 C.ar    1  UNL1        0.0351
      7 C          63.8692   89.5633   13.0726 C.ar    1  UNL1        0.0722
      8 CL         63.8903   88.5550   14.1829 Cl      1  UNL1       -0.0809
      9 S          65.7982   92.8512   11.9688 S.O2    1  UNL1        0.0772
     10 O          66.2416   92.4759   10.5859 O.2     1  UNL1       -0.1498
     11 O          65.3549   93.2266   13.3517 O.2     1  UNL1       -0.1498
     12 N          66.7733   93.9910   11.9721 N.pl3   1  UNL1       -0.1936
     13 H          67.4268   94.0777   12.7033 H       1  UNL1        0.1758
     14 C          66.7528   94.9988   10.8612 C.ar    1  UNL1        0.1786
     15 N          67.7451   95.0961    9.7405 N.ar    1  UNL1       -0.2214
     16 C          67.3419   96.2436    8.8626 C.ar    1  UNL1        0.1079
     17 C          66.1004   96.8555    9.4408 C.ar    1  UNL1        0.0588
     18 S          65.7363   96.0862   10.6759 S.2     1  UNL1       -0.0497
     19 N          61.8979   88.2920   11.9557 N.pl3   1  UNL1       -0.3319
     20 H          61.2535   88.1933   12.6935 H       1  UNL1        0.1468
     21 C          61.9045   87.3025   10.8284 C.3     1  UNL1        0.0870
     22 N          63.8572   81.7062   11.7603 N.2     1  UNL1       -0.0917
     23 C          63.3690   83.1052   11.5274 C.2     1  UNL1        0.0748
     24 C          62.8366   83.9143   12.6727 C.3     1  UNL1        0.0447
     25 C          62.3484   85.3134   12.4397 C.3     1  UNL1        0.0078
     26 C          62.3927   85.9034   11.0614 C.3     1  UNL1        0.0203
     27 C          62.9251   85.0944    9.9161 C.3     1  UNL1        0.0078
     28 C          63.4133   83.6953   10.1490 C.3     1  UNL1        0.0447
     29 C          62.6093   80.3396   13.5838 C.3     1  UNL1        0.2885
     30 O          63.8129   81.1161   13.1387 O.2     1  UNL1       -0.3737
@<TRIPOS>BOND
     1    29    30    1
     2    30    22    1
     3    22    23    2
     4    23    24    1
     5    24    25    1
     6    25    26    1
     7    26    21    1
     8    21    19    1
     9    19     1    1
    10     1     2   ar
    11     2     3   ar
    12     3     4    1
    13     3     5   ar
    14     5     9    1
    15     9    10    2
    16     9    11    2
    17     9    12    1
    18    12    14    1
    19    14    15   ar
    20    15    16   ar
    21    16    17   ar
    22    17    18   ar
    23     5     6   ar
    24     6     7   ar
    25     7     8    1
    26    26    27    1
    27    27    28    1
    28    28    23    1
    29     7     1   ar
    30    18    14   ar
    31    19    20    1
    32    12    13    1
@<TRIPOS>MOLECULE
*****
 30 32 0 0 0
SMALL
GASTEIGER

@<TRIPOS>ATOM
      1 C          62.4569   88.1123   11.0750 C.ar    1  UNL1        0.0577
      2 C          63.2850   88.2135   12.3217 C.ar    1  UNL1        0.0462
      3 C          63.5635   86.9867   13.1387 C.ar    1  UNL1        0.1602
      4 F          64.3915   87.0878   14.3853 F       1  UNL1       -0.2027
      5 C          63.0140   85.6587   12.7089 C.ar    1  UNL1        0.1534
      6 C          62.1859   85.5576   11.4623 C.ar    1  UNL1        0.0351
      7 C          61.9074   86.7844   10.6453 C.ar    1  UNL1        0.0722
      8 CL         61.0794   86.6833    9.3987 Cl      1  UNL1       -0.0809
      9 S          63.2925   84.4319   13.5258 S.O2    1  UNL1        0.0772
     10 O          64.3131   83.9926   12.5182 O.2     1  UNL1       -0.1498
     11 O          62.2719   84.8712   14.5335 O.2     1  UNL1       -0.1498
     12 N          63.5710   83.2051   14.3428 N.pl3   1  UNL1       -0.1936
     13 H          64.2574   83.2288   15.0481 H       1  UNL1        0.1758
     14 C          62.8037   81.9422   14.0850 C.ar    1  UNL1        0.1786
     15 N          61.3626   81.7013   14.4246 N.ar    1  UNL1       -0.2214
     16 C          61.0109   80.3088   13.9919 C.ar    1  UNL1        0.1079
     17 C          62.2347   79.6891   13.3849 C.ar    1  UNL1        0.0588
     18 S          63.3426   80.6986   13.4424 S.2     1  UNL1       -0.0497
     19 N          62.1784   89.3391   10.2581 N.pl3   1  UNL1       -0.3319
     20 H          62.0175   89.2598    9.2901 H       1  UNL1        0.1468
     21 C          62.1449   90.6866   10.9161 C.3     1  UNL1        0.0870
     22 N          67.2427   93.2407   12.7840 N.2     1  UNL1       -0.0917
     23 C          65.9682   92.6022   12.3170 C.2     1  UNL1        0.0748
     24 C          65.0408   91.9658   13.3093 C.3     1  UNL1        0.0447
     25 C          63.7663   91.3273   12.8423 C.3     1  UNL1        0.0078
     26 C          63.4193   91.3252   11.3830 C.3     1  UNL1        0.0203
     27 C          64.3468   91.9616   10.3907 C.3     1  UNL1        0.0078
     28 C          65.6213   92.6001   10.8577 C.3     1  UNL1        0.0447
     29 C          68.7379   92.4168   14.7423 C.3     1  UNL1        0.2885
     30 O          67.5897   93.2428   14.2432 O.2     1  UNL1       -0.3737
@<TRIPOS>BOND
     1    29    30    1
     2    30    22    1
     3    22    23    2
     4    23    24    1
     5    24    25    1
     6    25    26    1
     7    26    21    1
     8    21    19    1
     9    19     1    1
    10     1     2   ar
    11     2     3   ar
    12     3     4    1
    13     3     5   ar
    14     5     9    1
    15     9    10    2
    16     9    11    2
    17     9    12    1
    18    12    14    1
    19    14    15   ar
    20    15    16   ar
    21    16    17   ar
    22    17    18   ar
    23     5     6   ar
    24     6     7   ar
    25     7     8    1
    26    26    27    1
    27    27    28    1
    28    28    23    1
    29     7     1   ar
    30    18    14   ar
    31    19    20    1
    32    12    13    1
@<TRIPOS>MOLECULE
*****
 30 32 0 0 0
SMALL
GASTEIGER

@<TRIPOS>ATOM
      1 C          63.4653   88.6386   12.7807 C.ar    1  UNL1        0.0577
      2 C          62.8972   87.5116   11.9700 C.ar    1  UNL1        0.0462
      3 C          62.9972   86.1017   12.4722 C.ar    1  UNL1        0.1602
      4 F          62.4291   84.9748   11.6616 F       1  UNL1       -0.2027
      5 C          63.6652   85.8189   13.7852 C.ar    1  UNL1        0.1534
      6 C          64.2333   86.9459   14.5958 C.ar    1  UNL1        0.0351
      7 C          64.1333   88.3558   14.0936 C.ar    1  UNL1        0.0722
      8 CL         64.7013   89.4827   14.9042 Cl      1  UNL1       -0.0809
      9 S          63.7652   84.4090   14.2874 S.O2    1  UNL1        0.0772
     10 O          62.3017   84.4224   14.6162 O.2     1  UNL1       -0.1498
     11 O          65.2286   84.3956   13.9586 O.2     1  UNL1       -0.1498
     12 N          63.8651   82.9991   14.7897 N.pl3   1  UNL1       -0.1936
     13 H          64.2744   82.8167   15.6663 H       1  UNL1        0.1758
     14 C          63.3415   81.8672   13.9562 C.ar    1  UNL1        0.1786
     15 N          62.5921   80.6713   14.4645 N.ar    1  UNL1       -0.2214
     16 C          62.2627   79.7974   13.2907 C.ar    1  UNL1        0.1079
     17 C          62.8086   80.4532   12.0570 C.ar    1  UNL1        0.0588
     18 S          63.4753   81.7324   12.4683 S.2     1  UNL1       -0.0497
     19 N          63.3653   90.0485   12.2784 N.pl3   1  UNL1       -0.3319
     20 H          62.8733   90.2415   11.4478 H       1  UNL1        0.1468
     21 C          64.0150   91.1644   13.0417 C.3     1  UNL1        0.0870
     22 N          67.4634   95.1504   10.1745 N.2     1  UNL1       -0.0917
     23 C          66.6013   94.1539   10.8913 C.2     1  UNL1        0.0748
     24 C          65.6874   93.2552   10.1122 C.3     1  UNL1        0.0447
     25 C          64.8253   92.2587   10.8290 C.3     1  UNL1        0.0078
     26 C          64.8771   92.1609   12.3249 C.3     1  UNL1        0.0203
     27 C          65.7910   93.0597   13.1040 C.3     1  UNL1        0.0078
     28 C          66.6531   94.0562   12.3872 C.3     1  UNL1        0.0447
     29 C          66.9175   96.5051    8.0258 C.3     1  UNL1        0.2885
     30 O          67.4116   95.2482    8.6786 O.2     1  UNL1       -0.3737
@<TRIPOS>BOND
     1    29    30    1
     2    30    22    1
     3    22    23    2
     4    23    24    1
     5    24    25    1
     6    25    26    1
     7    26    21    1
     8    21    19    1
     9    19     1    1
    10     1     2   ar
    11     2     3   ar
    12     3     4    1
    13     3     5   ar
    14     5     9    1
    15     9    10    2
    16     9    11    2
    17     9    12    1
    18    12    14    1
    19    14    15   ar
    20    15    16   ar
    21    16    17   ar
    22    17    18   ar
    23     5     6   ar
    24     6     7   ar
    25     7     8    1
    26    26    27    1
    27    27    28    1
    28    28    23    1
    29     7     1   ar
    30    18    14   ar
    31    19    20    1
    32    12    13    1
@<TRIPOS>MOLECULE
*****
 30 32 0 0 0
SMALL
GASTEIGER

@<TRIPOS>ATOM
      1 C          62.9662   89.6667   12.2305 C.ar    1  UNL1        0.0577
      2 C          62.8988   90.5778   11.0407 C.ar    1  UNL1        0.0462
      3 C          63.8981   91.6859   10.8870 C.ar    1  UNL1        0.1602
      4 F          63.8307   92.5969    9.6973 F       1  UNL1       -0.2027
      5 C          64.9648   91.8829   11.9231 C.ar    1  UNL1        0.1534
      6 C          65.0322   90.9719   13.1128 C.ar    1  UNL1        0.0351
      7 C          64.0329   89.8638   13.2665 C.ar    1  UNL1        0.0722
      8 CL         64.1003   88.9528   14.4562 Cl      1  UNL1       -0.0809
      9 S          65.9640   92.9910   11.7694 S.O2    1  UNL1        0.0772
     10 O          66.3082   92.4904   10.3979 O.2     1  UNL1       -0.1498
     11 O          65.6199   93.4915   13.1409 O.2     1  UNL1       -0.1498
     12 N          66.9633   94.0990   11.6157 N.pl3   1  UNL1       -0.1936
     13 H          67.6875   94.2037   12.2744 H       1  UNL1        0.1758
     14 C          66.8592   95.0477   10.4585 C.ar    1  UNL1        0.1786
     15 N          65.8713   96.1684   10.3232 N.ar    1  UNL1       -0.2214
     16 C          66.1261   96.8556    9.0145 C.ar    1  UNL1        0.1079
     17 C          67.2715   96.1596    8.3408 C.ar    1  UNL1        0.0588
     18 S          67.7245   95.0423    9.2333 S.2     1  UNL1       -0.0497
     19 N          61.9670   88.5587   12.3842 N.pl3   1  UNL1       -0.3319
     20 H          62.1322   87.8326   13.0283 H       1  UNL1        0.1468
     21 C          60.7159   88.5568   11.5567 C.3     1  UNL1        0.0870
     22 N          60.3753   85.1326    6.6415 N.2     1  UNL1       -0.0917
     23 C          60.4605   85.9887    7.8703 C.2     1  UNL1        0.0748
     24 C          61.6323   85.8559    8.7971 C.3     1  UNL1        0.0447
     25 C          61.7175   86.7119   10.0259 C.3     1  UNL1        0.0078
     26 C          60.6308   87.7007   10.3279 C.3     1  UNL1        0.0203
     27 C          59.4589   87.8335    9.4010 C.3     1  UNL1        0.0078
     28 C          59.3738   86.9775    8.1722 C.3     1  UNL1        0.0447
     29 C          62.5159   84.4742    5.3246 C.3     1  UNL1        0.2885
     30 O          61.4620   84.1438    6.3395 O.2     1  UNL1       -0.3737
@<TRIPOS>BOND
     1    29    30    1
     2    30    22    1
     3    22    23    2
     4    23    24    1
     5    24    25    1
     6    25    26    1
     7    26    21    1
     8    21    19    1
     9    19     1    1
    10     1     2   ar
    11     2     3   ar
    12     3     4    1
    13     3     5   ar
    14     5     9    1
    15     9    10    2
    16     9    11    2
    17     9    12    1
    18    12    14    1
    19    14    15   ar
    20    15    16   ar
    21    16    17   ar
    22    17    18   ar
    23     5     6   ar
    24     6     7   ar
    25     7     8    1
    26    26    27    1
    27    27    28    1
    28    28    23    1
    29     7     1   ar
    30    18    14   ar
    31    19    20    1
    32    12    13    1
@<TRIPOS>MOLECULE
*****
 30 32 0 0 0
SMALL
GASTEIGER

@<TRIPOS>ATOM
      1 C          62.4241   88.6479   11.1843 C.ar    1  UNL1        0.0577
      2 C          62.4446   89.8787   10.3271 C.ar    1  UNL1        0.0462
      3 C          63.3119   91.0423   10.7062 C.ar    1  UNL1        0.1602
      4 F          63.3325   92.2731    9.8491 F       1  UNL1       -0.2027
      5 C          64.1587   90.9752   11.9426 C.ar    1  UNL1        0.1534
      6 C          64.1381   89.7444   12.7998 C.ar    1  UNL1        0.0351
      7 C          63.2708   88.5808   12.4206 C.ar    1  UNL1        0.0722
      8 CL         63.2502   87.3500   13.2778 Cl      1  UNL1       -0.0809
      9 S          65.0259   92.1388   12.3218 S.O2    1  UNL1        0.0772
     10 O          64.4522   92.1149   13.7075 O.2     1  UNL1       -0.1498
     11 O          65.5996   92.1628   10.9360 O.2     1  UNL1       -0.1498
     12 N          65.8932   93.3025   12.7009 N.pl3   1  UNL1       -0.1936
     13 H          65.7817   94.1684   12.2460 H       1  UNL1        0.1758
     14 C          66.9305   93.1468   13.7733 C.ar    1  UNL1        0.1786
     15 N          67.1819   94.1021   14.9021 N.ar    1  UNL1       -0.2214
     16 C          68.3051   93.5542   15.7316 C.ar    1  UNL1        0.1079
     17 C          68.7480   92.2602   15.1154 C.ar    1  UNL1        0.0588
     18 S          67.8984   92.0085   13.9052 S.2     1  UNL1       -0.0497
     19 N          61.5568   87.4842   10.8052 N.pl3   1  UNL1       -0.3319
     20 H          60.6383   87.4208   11.1537 H       1  UNL1        0.1468
     21 C          62.0891   86.4173    9.8951 C.3     1  UNL1        0.0870
     22 N          64.2578   81.3183   12.1965 N.2     1  UNL1       -0.0917
     23 C          63.7156   82.5930   11.6212 C.2     1  UNL1        0.0748
     24 C          62.7664   83.4336   12.4226 C.3     1  UNL1        0.0447
     25 C          62.2242   84.7083   11.8473 C.3     1  UNL1        0.0078
     26 C          62.6313   85.1425   10.4704 C.3     1  UNL1        0.0203
     27 C          63.5805   84.3020    9.6690 C.3     1  UNL1        0.0078
     28 C          64.1227   83.0273   10.2443 C.3     1  UNL1        0.0447
     29 C          62.5086   80.2517   13.7942 C.3     1  UNL1        0.2885
     30 O          63.8508   80.8841   13.5733 O.2     1  UNL1       -0.3737
@<TRIPOS>BOND
     1    29    30    1
     2    30    22    1
     3    22    23    2
     4    23    24    1
     5    24    25    1
     6    25    26    1
     7    26    21    1
     8    21    19    1
     9    19     1    1
    10     1     2   ar
    11     2     3   ar
    12     3     4    1
    13     3     5   ar
    14     5     9    1
    15     9    10    2
    16     9    11    2
    17     9    12    1
    18    12    14    1
    19    14    15   ar
    20    15    16   ar
    21    16    17   ar
    22    17    18   ar
    23     5     6   ar
    24     6     7   ar
    25     7     8    1
    26    26    27    1
    27    27    28    1
    28    28    23    1
    29     7     1   ar
    30    18    14   ar
    31    19    20    1
    32    12    13    1
@<TRIPOS>MOLECULE
*****
 30 32 0 0 0
SMALL
GASTEIGER

@<TRIPOS>ATOM
      1 C          60.5761   87.9979    9.3276 C.ar    1  UNL1        0.0577
      2 C          61.5292   87.1248    8.5664 C.ar    1  UNL1        0.0462
      3 C          62.3221   86.0744    9.2861 C.ar    1  UNL1        0.1602
      4 F          63.2752   85.2013    8.5250 F       1  UNL1       -0.2027
      5 C          62.1620   85.8971   10.7670 C.ar    1  UNL1        0.1534
      6 C          61.2089   86.7702   11.5281 C.ar    1  UNL1        0.0351
      7 C          60.4160   87.8206   10.8085 C.ar    1  UNL1        0.0722
      8 CL         59.4630   88.6937   11.5696 Cl      1  UNL1       -0.0809
      9 S          62.9549   84.8467   11.4867 S.O2    1  UNL1        0.0772
     10 O          62.8266   83.9373   10.3007 O.2     1  UNL1       -0.1498
     11 O          63.0832   85.7561   12.6727 O.2     1  UNL1       -0.1498
     12 N          63.7478   83.7963   12.2064 N.pl3   1  UNL1       -0.1936
     13 H          64.7259   83.8816   12.2792 H       1  UNL1        0.1758
     14 C          63.0504   82.6159   12.8151 C.ar    1  UNL1        0.1786
     15 N          63.0215   81.2243   12.2560 N.ar    1  UNL1       -0.2214
     16 C          62.2128   80.3682   13.1851 C.ar    1  UNL1        0.1079
     17 C          61.7419   81.2309   14.3184 C.ar    1  UNL1        0.0588
     18 S          62.2596   82.6200   14.0897 S.2     1  UNL1       -0.0497
     19 N          59.7832   89.0483    8.6080 N.pl3   1  UNL1       -0.3319
     20 H          59.5880   89.9064    9.0494 H       1  UNL1        0.1468
     21 C          59.2877   88.7914    7.2157 C.3     1  UNL1        0.0870
     22 N          59.4031   93.1853    3.1316 N.2     1  UNL1       -0.0917
     23 C          59.3742   92.0868    4.1526 C.2     1  UNL1        0.0748
     24 C          60.6449   91.3916    4.5425 C.3     1  UNL1        0.0447
     25 C          60.6161   90.2932    5.5635 C.3     1  UNL1        0.0078
     26 C          59.3165   89.8898    6.1947 C.3     1  UNL1        0.0203
     27 C          58.0458   90.5850    5.8048 C.3     1  UNL1        0.0078
     28 C          58.0747   91.6835    4.7838 C.3     1  UNL1        0.0447
     29 C          61.0510   93.1025    1.1248 C.3     1  UNL1        0.2885
     30 O          60.7026   93.5886    2.5004 O.2     1  UNL1       -0.3737
@<TRIPOS>BOND
     1    29    30    1
     2    30    22    1
     3    22    23    2
     4    23    24    1
     5    24    25    1
     6    25    26    1
     7    26    21    1
     8    21    19    1
     9    19     1    1
    10     1     2   ar
    11     2     3   ar
    12     3     4    1
    13     3     5   ar
    14     5     9    1
    15     9    10    2
    16     9    11    2
    17     9    12    1
    18    12    14    1
    19    14    15   ar
    20    15    16   ar
    21    16    17   ar
    22    17    18   ar
    23     5     6   ar
    24     6     7   ar
    25     7     8    1
    26    26    27    1
    27    27    28    1
    28    28    23    1
    29     7     1   ar
    30    18    14   ar
    31    19    20    1
    32    12    13    1
@<TRIPOS>MOLECULE
*****
 30 32 0 0 0
SMALL
GASTEIGER

@<TRIPOS>ATOM
      1 C          59.0475   90.5625    5.6215 C.ar    1  UNL1        0.0577
      2 C          60.5164   90.6389    5.3270 C.ar    1  UNL1        0.0462
      3 C          61.0172   91.5419    4.2390 C.ar    1  UNL1        0.1602
      4 F          62.4859   91.6184    3.9445 F       1  UNL1       -0.2027
      5 C          60.0491   92.3685    3.4455 C.ar    1  UNL1        0.1534
      6 C          58.5803   92.2921    3.7400 C.ar    1  UNL1        0.0351
      7 C          58.0795   91.3891    4.8280 C.ar    1  UNL1        0.0722
      8 CL         56.6107   91.3126    5.1225 Cl      1  UNL1       -0.0809
      9 S          60.5499   93.2716    2.3575 S.O2    1  UNL1        0.0772
     10 O          60.0837   94.4667    3.1349 O.2     1  UNL1       -0.1498
     11 O          61.0161   92.0765    1.5801 O.2     1  UNL1       -0.1498
     12 N          61.0507   94.1746    1.2695 N.pl3   1  UNL1       -0.1936
     13 H          60.4164   94.7255    0.7561 H       1  UNL1        0.1758
     14 C          62.5178   94.2383    0.9637 C.ar    1  UNL1        0.1786
     15 N          63.6328   94.0132    1.9415 N.ar    1  UNL1       -0.2214
     16 C          64.9317   94.1741    1.2086 C.ar    1  UNL1        0.1079
     17 C          64.6193   94.4987   -0.2222 C.ar    1  UNL1        0.0588
     18 S          63.1275   94.5384   -0.3735 S.2     1  UNL1       -0.0497
     19 N          58.5467   89.6594    6.7095 N.pl3   1  UNL1       -0.3319
     20 H          57.7504   89.9113    7.2307 H       1  UNL1        0.1468
     21 C          59.2591   88.3726    7.0033 C.3     1  UNL1        0.0870
     22 N          62.6045   87.8592   11.9576 N.2     1  UNL1       -0.0917
     23 C          61.7682   87.9875   10.7190 C.2     1  UNL1        0.0748
     24 C          61.1833   89.3167   10.3434 C.3     1  UNL1        0.0447
     25 C          60.3469   89.4451    9.1049 C.3     1  UNL1        0.0078
     26 C          60.0955   88.2442    8.2419 C.3     1  UNL1        0.0203
     27 C          60.6804   86.9151    8.6175 C.3     1  UNL1        0.0078
     28 C          61.5167   86.7867    9.8561 C.3     1  UNL1        0.0447
     29 C          64.0210   89.0740   13.7653 C.3     1  UNL1        0.2885
     30 O          62.8560   89.0600   12.8205 O.2     1  UNL1       -0.3737
@<TRIPOS>BOND
     1    29    30    1
     2    30    22    1
     3    22    23    2
     4    23    24    1
     5    24    25    1
     6    25    26    1
     7    26    21    1
     8    21    19    1
     9    19     1    1
    10     1     2   ar
    11     2     3   ar
    12     3     4    1
    13     3     5   ar
    14     5     9    1
    15     9    10    2
    16     9    11    2
    17     9    12    1
    18    12    14    1
    19    14    15   ar
    20    15    16   ar
    21    16    17   ar
    22    17    18   ar
    23     5     6   ar
    24     6     7   ar
    25     7     8    1
    26    26    27    1
    27    27    28    1
    28    28    23    1
    29     7     1   ar
    30    18    14   ar
    31    19    20    1
    32    12    13    1
