@<TRIPOS>MOLECULE
*****
 40 43 0 0 0
SMALL
GASTEIGER

@<TRIPOS>ATOM
      1 C          61.0787   87.9493    9.8428 C.3     1  UNL1        0.0705
      2 C          60.1172   88.9868    9.3437 C.3     1  UNL1        0.0082
      3 C          59.3050   88.7250    8.1100 C.3     1  UNL1        0.0005
      4 C          59.4544   87.4258    7.3755 C.3     1  UNL1        0.0005
      5 C          60.4159   86.3882    7.8746 C.3     1  UNL1        0.0095
      6 C          61.2280   86.6500    9.1082 C.3     1  UNL1        0.0840
      7 C          62.1895   85.6125    9.6073 C.2     1  UNL1        0.2261
      8 O          63.3829   85.2361    8.7800 O.2     1  UNL1       -0.2748
      9 N          61.9578   84.9514   10.9336 N.am    1  UNL1       -0.2814
     10 H          61.1746   85.1984   11.4766 H       1  UNL1        0.1549
     11 C          62.9193   83.9139   11.4327 C.ar    1  UNL1        0.0935
     12 C          63.6235   82.8885   10.5944 C.ar    1  UNL1        0.1364
     13 N          64.4848   82.0605   11.5013 N.ar    1  UNL1       -0.1662
     14 N          64.3130   82.5741   12.9001 N.ar    1  UNL1       -0.2430
     15 C          64.9898   82.0366   14.1261 C.3     1  UNL1        0.1539
     16 C          63.3454   83.7195   12.8577 C.ar    1  UNL1        0.1480
     17 C          62.8849   84.5286   14.0338 C.2     1  UNL1        0.2866
     18 O          61.4596   84.4405   14.4929 O.2     1  UNL1       -0.2664
     19 N          63.8497   85.4259   14.7509 N.am    1  UNL1       -0.1886
     20 H          64.7852   85.4837   14.4496 H       1  UNL1        0.1829
     21 O          63.3891   86.2349   15.9271 O.3     1  UNL1       -0.2712
     22 C          63.5554   87.7257   15.9231 C.3     1  UNL1        0.1173
     23 C          64.3880   87.6294   14.6791 C.3     1  UNL1        0.0321
     24 C          62.7228   87.8219   17.1671 C.3     1  UNL1        0.0321
     25 C          63.7217   89.2164   15.9190 C.3     1  UNL1        0.0321
     26 C          61.8909   88.2111   11.0764 C.2     1  UNL1        0.1731
     27 O          61.8606   87.2354   12.2153 O.2     1  UNL1       -0.2913
     28 C          64.4185   91.9232   11.3605 C.ar    1  UNL1        0.0194
     29 C          64.2876   91.0126   12.5452 C.ar    1  UNL1        0.0016
     30 C          63.4450   89.7753   12.4505 C.ar    1  UNL1        0.0029
     31 C          62.7335   89.4485   11.1711 C.ar    1  UNL1        0.0347
     32 C          62.8645   90.3592    9.9864 C.ar    1  UNL1        0.0029
     33 C          63.7070   91.5965   10.0811 C.ar    1  UNL1        0.0016
     34 C          67.0929   96.2888   10.0677 C.3     1  UNL1        0.0515
     35 C          66.4904   95.1673   10.8609 C.ar    1  UNL1        0.0535
     36 C          65.6475   94.0538   10.3137 C.ar    1  UNL1        0.0349
     37 C          65.2611   93.1607   11.4552 C.ar    1  UNL1        0.1018
     38 N          65.8652   93.7223   12.7081 N.ar    1  UNL1       -0.1730
     39 N          66.6249   94.9624   12.3408 N.ar    1  UNL1       -0.2798
     40 H          67.1242   95.5404   12.9620 H       1  UNL1        0.1886
@<TRIPOS>BOND
     1    34    35    1
     2    35    36   ar
     3    36    37   ar
     4    37    28    1
     5    28    29   ar
     6    29    30   ar
     7    30    31   ar
     8    31    26    1
     9    26    27    2
    10     1    26    1
    11     1     2    1
    12     2     3    1
    13     3     4    1
    14     4     5    1
    15     5     6    1
    16     6     7    1
    17     7     8    2
    18     7     9   am
    19     9    11    1
    20    11    12   ar
    21    12    13   ar
    22    13    14   ar
    23    14    15    1
    24    14    16   ar
    25    16    17    1
    26    17    18    2
    27    17    19   am
    28    19    21    1
    29    21    22    1
    30    22    23    1
    31    22    24    1
    32    22    25    1
    33    31    32   ar
    34    32    33   ar
    35    37    38   ar
    36    38    39   ar
    37    39    35   ar
    38    33    28   ar
    39     6     1    1
    40    16    11   ar
    41     9    10    1
    42    19    20    1
    43    39    40    1
@<TRIPOS>MOLECULE
*****
 40 43 0 0 0
SMALL
GASTEIGER

@<TRIPOS>ATOM
      1 C          63.4497   87.5119   15.6260 C.3     1  UNL1        0.0705
      2 C          63.2518   88.7022   16.5171 C.3     1  UNL1        0.0082
      3 C          62.8744   88.5075   17.9558 C.3     1  UNL1        0.0005
      4 C          62.6949   87.1226   18.5033 C.3     1  UNL1        0.0005
      5 C          62.8929   85.9323   17.6122 C.3     1  UNL1        0.0095
      6 C          63.2703   86.1269   16.1736 C.3     1  UNL1        0.0840
      7 C          63.4682   84.9367   15.2825 C.2     1  UNL1        0.2261
      8 O          64.8458   84.3857   15.0620 O.2     1  UNL1       -0.2748
      9 N          62.2885   84.2974   14.6119 N.am    1  UNL1       -0.2814
     10 H          61.3844   84.6590   14.7566 H       1  UNL1        0.1549
     11 C          62.4865   83.1071   13.7208 C.ar    1  UNL1        0.0935
     12 C          62.4802   81.6709   14.1536 C.ar    1  UNL1        0.1364
     13 N          62.7153   80.8202   12.9407 N.ar    1  UNL1       -0.1662
     14 N          62.8668   81.7307   11.7583 N.ar    1  UNL1       -0.2430
     15 C          63.1160   81.3029   10.3423 C.3     1  UNL1        0.1539
     16 C          62.7254   83.1440   12.2404 C.ar    1  UNL1        0.1480
     17 C          62.8084   84.3777   11.3912 C.2     1  UNL1        0.2866
     18 O          63.9036   84.5171   10.3759 O.2     1  UNL1       -0.2664
     19 N          61.7959   85.4721   11.5573 N.am    1  UNL1       -0.1886
     20 H          61.0771   85.3806   12.2237 H       1  UNL1        0.1829
     21 O          61.8789   86.7058   10.7081 O.3     1  UNL1       -0.2712
     22 C          60.7432   87.0670    9.7973 C.3     1  UNL1        0.1173
     23 C          61.3326   86.2051    8.7205 C.3     1  UNL1        0.0321
     24 C          60.1537   87.9289   10.8741 C.3     1  UNL1        0.0321
     25 C          59.6074   87.4282    8.8865 C.3     1  UNL1        0.0321
     26 C          63.8271   87.7065   14.1874 C.2     1  UNL1        0.1731
     27 O          63.7898   86.5454   13.2385 O.2     1  UNL1       -0.2913
     28 C          65.0716   91.7738   12.7182 C.ar    1  UNL1        0.0194
     29 C          65.6978   91.1988   13.9540 C.ar    1  UNL1        0.0016
     30 C          65.2830   89.8431   14.4437 C.ar    1  UNL1        0.0029
     31 C          64.2419   89.0623   13.6976 C.ar    1  UNL1        0.0347
     32 C          63.6157   89.6373   12.4618 C.ar    1  UNL1        0.0029
     33 C          64.0305   90.9930   11.9721 C.ar    1  UNL1        0.0016
     34 C          66.0683   95.8819    9.5542 C.3     1  UNL1        0.0515
     35 C          65.9445   95.0179   10.7740 C.ar    1  UNL1        0.0535
     36 C          65.4387   93.6061   10.8069 C.ar    1  UNL1        0.0349
     37 C          65.4864   93.1296   12.2284 C.ar    1  UNL1        0.1018
     38 N          66.0217   94.2468   13.0741 N.ar    1  UNL1       -0.1730
     39 N          66.3048   95.4138   12.1753 N.ar    1  UNL1       -0.2798
     40 H          66.6641   96.2865   12.4558 H       1  UNL1        0.1886
@<TRIPOS>BOND
     1    34    35    1
     2    35    36   ar
     3    36    37   ar
     4    37    28    1
     5    28    29   ar
     6    29    30   ar
     7    30    31   ar
     8    31    26    1
     9    26    27    2
    10     1    26    1
    11     1     2    1
    12     2     3    1
    13     3     4    1
    14     4     5    1
    15     5     6    1
    16     6     7    1
    17     7     8    2
    18     7     9   am
    19     9    11    1
    20    11    12   ar
    21    12    13   ar
    22    13    14   ar
    23    14    15    1
    24    14    16   ar
    25    16    17    1
    26    17    18    2
    27    17    19   am
    28    19    21    1
    29    21    22    1
    30    22    23    1
    31    22    24    1
    32    22    25    1
    33    31    32   ar
    34    32    33   ar
    35    37    38   ar
    36    38    39   ar
    37    39    35   ar
    38    33    28   ar
    39     6     1    1
    40    16    11   ar
    41     9    10    1
    42    19    20    1
    43    39    40    1
@<TRIPOS>MOLECULE
*****
 40 43 0 0 0
SMALL
GASTEIGER

@<TRIPOS>ATOM
      1 C          60.2011   89.0644    9.4041 C.3     1  UNL1        0.0705
      2 C          59.6240   89.3229    8.0439 C.3     1  UNL1        0.0082
      3 C          59.5502   88.2132    7.0373 C.3     1  UNL1        0.0005
      4 C          60.0534   86.8451    7.3909 C.3     1  UNL1        0.0005
      5 C          60.6305   86.5867    8.7511 C.3     1  UNL1        0.0095
      6 C          60.7044   87.6963    9.7577 C.3     1  UNL1        0.0840
      7 C          61.2814   87.4378   11.1179 C.2     1  UNL1        0.2261
      8 O          60.3823   87.3916   12.3177 O.2     1  UNL1       -0.2748
      9 N          62.7576   87.2256   11.2784 N.am    1  UNL1       -0.2814
     10 H          63.3478   87.2560   10.4910 H       1  UNL1        0.1549
     11 C          63.3347   86.9671   12.6386 C.ar    1  UNL1        0.0935
     12 C          63.6893   88.0085   13.6584 C.ar    1  UNL1        0.1364
     13 N          64.2323   87.3069   14.8679 N.ar    1  UNL1       -0.1662
     14 N          64.2133   85.8319   14.5957 N.ar    1  UNL1       -0.2430
     15 C          64.6690   84.7558   15.5361 C.3     1  UNL1        0.1539
     16 C          63.6586   85.6220   13.2179 C.ar    1  UNL1        0.1480
     17 C          63.4622   84.2990   12.5387 C.2     1  UNL1        0.2866
     18 O          62.2910   84.0916   11.6250 O.2     1  UNL1       -0.2664
     19 N          64.4372   83.1834   12.7733 N.am    1  UNL1       -0.1886
     20 H          65.2060   83.3196   13.3731 H       1  UNL1        0.1829
     21 O          64.2409   81.8605   12.0941 O.3     1  UNL1       -0.2712
     22 C          63.2324   80.8863   12.6270 C.3     1  UNL1        0.1173
     23 C          63.7232   81.1411   14.0213 C.3     1  UNL1        0.0321
     24 C          62.7416   80.6315   11.2327 C.3     1  UNL1        0.0321
     25 C          62.2240   79.9122   13.1600 C.3     1  UNL1        0.0321
     26 C          60.2749   90.1740   10.4107 C.2     1  UNL1        0.1731
     27 O          59.0261   90.8924   10.8281 O.2     1  UNL1       -0.2913
     28 C          64.2431   91.3477   12.1787 C.ar    1  UNL1        0.0194
     29 C          63.1221   90.9123   13.0751 C.ar    1  UNL1        0.0016
     30 C          61.7994   90.5211   12.4858 C.ar    1  UNL1        0.0029
     31 C          61.5977   90.5653   11.0000 C.ar    1  UNL1        0.0347
     32 C          62.7188   91.0007   10.1037 C.ar    1  UNL1        0.0029
     33 C          64.0415   91.3920   10.6930 C.ar    1  UNL1        0.0016
     34 C          68.1772   92.1271   15.6134 C.3     1  UNL1        0.0515
     35 C          67.3742   92.0972   14.3468 C.ar    1  UNL1        0.0535
     36 C          65.9758   91.5744   14.2016 C.ar    1  UNL1        0.0349
     37 C          65.5659   91.7390   12.7680 C.ar    1  UNL1        0.1018
     38 N          66.7110   92.3635   12.0273 N.ar    1  UNL1       -0.1730
     39 N          67.8286   92.5849   13.0030 N.ar    1  UNL1       -0.2798
     40 H          68.7063   92.9808   12.7976 H       1  UNL1        0.1886
@<TRIPOS>BOND
     1    34    35    1
     2    35    36   ar
     3    36    37   ar
     4    37    28    1
     5    28    29   ar
     6    29    30   ar
     7    30    31   ar
     8    31    26    1
     9    26    27    2
    10     1    26    1
    11     1     2    1
    12     2     3    1
    13     3     4    1
    14     4     5    1
    15     5     6    1
    16     6     7    1
    17     7     8    2
    18     7     9   am
    19     9    11    1
    20    11    12   ar
    21    12    13   ar
    22    13    14   ar
    23    14    15    1
    24    14    16   ar
    25    16    17    1
    26    17    18    2
    27    17    19   am
    28    19    21    1
    29    21    22    1
    30    22    23    1
    31    22    24    1
    32    22    25    1
    33    31    32   ar
    34    32    33   ar
    35    37    38   ar
    36    38    39   ar
    37    39    35   ar
    38    33    28   ar
    39     6     1    1
    40    16    11   ar
    41     9    10    1
    42    19    20    1
    43    39    40    1
@<TRIPOS>MOLECULE
*****
 40 43 0 0 0
SMALL
GASTEIGER

@<TRIPOS>ATOM
      1 C          62.3600   88.1216   11.4748 C.3     1  UNL1        0.0705
      2 C          61.6733   87.5236   10.2828 C.3     1  UNL1        0.0082
      3 C          60.9072   88.4028    9.3392 C.3     1  UNL1        0.0005
      4 C          60.8279   89.8799    9.5877 C.3     1  UNL1        0.0005
      5 C          61.5146   90.4779   10.7797 C.3     1  UNL1        0.0095
      6 C          62.2806   89.5988   11.7232 C.3     1  UNL1        0.0840
      7 C          62.9673   90.1968   12.9152 C.2     1  UNL1        0.2261
      8 O          62.3399   90.0907   14.2736 O.2     1  UNL1       -0.2748
      9 N          64.2813   90.9007   12.7488 N.am    1  UNL1       -0.2814
     10 H          64.6931   90.9703   11.8573 H       1  UNL1        0.1549
     11 C          64.9680   91.4987   13.9408 C.ar    1  UNL1        0.0935
     12 C          64.5068   91.4015   15.3648 C.ar    1  UNL1        0.1364
     13 N          65.4902   92.1416   16.2222 N.ar    1  UNL1       -0.1662
     14 N          66.5593   92.6963   15.3281 N.ar    1  UNL1       -0.2430
     15 C          67.7432   93.5061   15.7668 C.3     1  UNL1        0.1539
     16 C          66.2365   92.2990   13.9181 C.ar    1  UNL1        0.1480
     17 C          67.0411   92.6417   12.6994 C.2     1  UNL1        0.2866
     18 O          68.3202   91.9117   12.4154 O.2     1  UNL1       -0.2664
     19 N          66.5664   93.7147   11.7647 N.am    1  UNL1       -0.1886
     20 H          65.7268   94.1939   11.9511 H       1  UNL1        0.1829
     21 O          67.3709   94.0574   10.5460 O.3     1  UNL1       -0.2712
     22 C          67.0710   95.3100    9.7773 C.3     1  UNL1        0.1173
     23 C          67.6538   94.6911    8.5415 C.3     1  UNL1        0.0321
     24 C          66.4882   95.9290   11.0131 C.3     1  UNL1        0.0321
     25 C          66.7711   96.5626    9.0085 C.3     1  UNL1        0.0321
     26 C          63.1260   87.2424   12.4183 C.2     1  UNL1        0.1731
     27 O          63.9806   87.8553   13.4879 O.2     1  UNL1       -0.2913
     28 C          62.8605   82.7662   12.0401 C.ar    1  UNL1        0.0194
     29 C          63.0473   83.6126   10.8158 C.ar    1  UNL1        0.0016
     30 C          63.1358   85.1046   10.9419 C.ar    1  UNL1        0.0029
     31 C          63.0375   85.7503   12.2922 C.ar    1  UNL1        0.0347
     32 C          62.8507   84.9040   13.5165 C.ar    1  UNL1        0.0029
     33 C          62.7622   83.4120   13.3904 C.ar    1  UNL1        0.0016
     34 C          62.9056   77.8852   10.0265 C.3     1  UNL1        0.0515
     35 C          62.7927   79.0305   10.9884 C.ar    1  UNL1        0.0535
     36 C          62.9739   80.4820   10.6563 C.ar    1  UNL1        0.0349
     37 C          62.7720   81.2741   11.9140 C.ar    1  UNL1        0.1018
     38 N          62.4660   80.3122   13.0235 N.ar    1  UNL1       -0.1730
     39 N          62.4788   78.9256   12.4515 N.ar    1  UNL1       -0.2798
     40 H          62.3108   78.0928   12.9490 H       1  UNL1        0.1886
@<TRIPOS>BOND
     1    34    35    1
     2    35    36   ar
     3    36    37   ar
     4    37    28    1
     5    28    29   ar
     6    29    30   ar
     7    30    31   ar
     8    31    26    1
     9    26    27    2
    10     1    26    1
    11     1     2    1
    12     2     3    1
    13     3     4    1
    14     4     5    1
    15     5     6    1
    16     6     7    1
    17     7     8    2
    18     7     9   am
    19     9    11    1
    20    11    12   ar
    21    12    13   ar
    22    13    14   ar
    23    14    15    1
    24    14    16   ar
    25    16    17    1
    26    17    18    2
    27    17    19   am
    28    19    21    1
    29    21    22    1
    30    22    23    1
    31    22    24    1
    32    22    25    1
    33    31    32   ar
    34    32    33   ar
    35    37    38   ar
    36    38    39   ar
    37    39    35   ar
    38    33    28   ar
    39     6     1    1
    40    16    11   ar
    41     9    10    1
    42    19    20    1
    43    39    40    1
@<TRIPOS>MOLECULE
*****
 40 43 0 0 0
SMALL
GASTEIGER

@<TRIPOS>ATOM
      1 C          60.4936   88.4971   10.0984 C.3     1  UNL1        0.0705
      2 C          59.9395   89.4899    9.1200 C.3     1  UNL1        0.0082
      3 C          59.7516   89.1022    7.6831 C.3     1  UNL1        0.0005
      4 C          60.1178   87.7217    7.2248 C.3     1  UNL1        0.0005
      5 C          60.6720   86.7289    8.2032 C.3     1  UNL1        0.0095
      6 C          60.8599   87.1166    9.6399 C.3     1  UNL1        0.0840
      7 C          61.4140   86.1238   10.6183 C.2     1  UNL1        0.2261
      8 O          60.7948   85.9845   11.9775 O.2     1  UNL1       -0.2748
      9 N          62.5872   85.2703   10.2376 N.am    1  UNL1       -0.2814
     10 H          62.9936   85.3617    9.3456 H       1  UNL1        0.1549
     11 C          63.1413   84.2775   11.2160 C.ar    1  UNL1        0.0935
     12 C          63.3588   82.8154   10.9610 C.ar    1  UNL1        0.1364
     13 N          63.9272   82.2067   12.2086 N.ar    1  UNL1       -0.1662
     14 N          64.0610   83.2926   13.2347 N.ar    1  UNL1       -0.2430
     15 C          64.5879   83.1277   14.6294 C.3     1  UNL1        0.1539
     16 C          63.5753   84.5724   12.6213 C.ar    1  UNL1        0.1480
     17 C          63.5313   85.9119   13.2948 C.2     1  UNL1        0.2866
     18 O          63.4890   87.1646   12.4711 O.2     1  UNL1       -0.2664
     19 N          63.5295   85.9987   14.7924 N.am    1  UNL1       -0.1886
     20 H          63.5572   85.1764   15.3332 H       1  UNL1        0.1829
     21 O          63.4855   87.3382   15.4660 O.3     1  UNL1       -0.2712
     22 C          63.1169   87.4364   16.9167 C.3     1  UNL1        0.1173
     23 C          63.1427   88.9331   16.8218 C.3     1  UNL1        0.0321
     24 C          63.0912   85.9396   17.0115 C.3     1  UNL1        0.0321
     25 C          62.7484   87.5346   18.3674 C.3     1  UNL1        0.0321
     26 C          60.6815   88.8848   11.5352 C.2     1  UNL1        0.1731
     27 O          59.6653   88.4781   12.5608 O.2     1  UNL1       -0.2913
     28 C          64.2939   91.2677   12.7689 C.ar    1  UNL1        0.0194
     29 C          63.4765   90.5543   13.8047 C.ar    1  UNL1        0.0016
     30 C          62.2724   89.7600   13.3934 C.ar    1  UNL1        0.0029
     31 C          61.8857   89.6791   11.9464 C.ar    1  UNL1        0.0347
     32 C          62.7031   90.3925   10.9106 C.ar    1  UNL1        0.0029
     33 C          63.9072   91.1868   11.3218 C.ar    1  UNL1        0.0016
     34 C          68.6288   92.8513   15.3344 C.3     1  UNL1        0.0515
     35 C          67.4907   92.7899   14.3594 C.ar    1  UNL1        0.0535
     36 C          66.4317   91.7289   14.3060 C.ar    1  UNL1        0.0349
     37 C          65.4981   92.0621   13.1801 C.ar    1  UNL1        0.1018
     38 N          65.9801   93.3289   12.5377 N.ar    1  UNL1       -0.1730
     39 N          67.2116   93.7788   13.2665 N.ar    1  UNL1       -0.2798
     40 H          67.7433   94.5820   13.0632 H       1  UNL1        0.1886
@<TRIPOS>BOND
     1    34    35    1
     2    35    36   ar
     3    36    37   ar
     4    37    28    1
     5    28    29   ar
     6    29    30   ar
     7    30    31   ar
     8    31    26    1
     9    26    27    2
    10     1    26    1
    11     1     2    1
    12     2     3    1
    13     3     4    1
    14     4     5    1
    15     5     6    1
    16     6     7    1
    17     7     8    2
    18     7     9   am
    19     9    11    1
    20    11    12   ar
    21    12    13   ar
    22    13    14   ar
    23    14    15    1
    24    14    16   ar
    25    16    17    1
    26    17    18    2
    27    17    19   am
    28    19    21    1
    29    21    22    1
    30    22    23    1
    31    22    24    1
    32    22    25    1
    33    31    32   ar
    34    32    33   ar
    35    37    38   ar
    36    38    39   ar
    37    39    35   ar
    38    33    28   ar
    39     6     1    1
    40    16    11   ar
    41     9    10    1
    42    19    20    1
    43    39    40    1
@<TRIPOS>MOLECULE
*****
 40 43 0 0 0
SMALL
GASTEIGER

@<TRIPOS>ATOM
      1 C          62.2088   86.6533   10.0118 C.3     1  UNL1        0.0705
      2 C          62.3419   86.3320    8.5527 C.3     1  UNL1        0.0082
      3 C          62.9780   85.0430    8.1235 C.3     1  UNL1        0.0005
      4 C          63.4810   84.0755    9.1534 C.3     1  UNL1        0.0005
      5 C          63.3479   84.3968   10.6126 C.3     1  UNL1        0.0095
      6 C          62.7118   85.6856   11.0418 C.3     1  UNL1        0.0840
      7 C          62.5788   86.0069   12.5009 C.2     1  UNL1        0.2261
      8 O          61.3116   85.6715   13.2302 O.2     1  UNL1       -0.2748
      9 N          63.7128   86.6637   13.2307 N.am    1  UNL1       -0.2814
     10 H          64.5444   86.8838   12.7520 H       1  UNL1        0.1549
     11 C          63.5797   86.9850   14.6898 C.ar    1  UNL1        0.0935
     12 C          63.7379   88.3406   15.3121 C.ar    1  UNL1        0.1364
     13 N          63.5210   88.2005   16.7898 N.ar    1  UNL1       -0.1662
     14 N          63.2288   86.7583   17.0807 N.ar    1  UNL1       -0.2430
     15 C          62.9494   86.1705   18.4321 C.3     1  UNL1        0.1539
     16 C          63.2651   86.0071   15.7829 C.ar    1  UNL1        0.1480
     17 C          63.0283   84.5362   15.6087 C.2     1  UNL1        0.2866
     18 O          61.7436   83.9222   16.0805 O.2     1  UNL1       -0.2664
     19 N          64.0763   83.6791   14.9626 N.am    1  UNL1       -0.1886
     20 H          64.9195   84.0820   14.6530 H       1  UNL1        0.1829
     21 O          63.8395   82.2082   14.7885 O.3     1  UNL1       -0.2712
     22 C          63.3139   81.6823   13.4857 C.3     1  UNL1        0.1173
     23 C          64.5447   82.1807   12.7881 C.3     1  UNL1        0.0321
     24 C          62.0831   81.1839   14.1833 C.3     1  UNL1        0.0321
     25 C          62.7884   81.1565   12.1829 C.3     1  UNL1        0.0321
     26 C          61.5727   87.9421   10.4410 C.2     1  UNL1        0.1731
     27 O          60.0828   88.0297   10.5910 O.2     1  UNL1       -0.2913
     28 C          64.1341   91.5459   11.2785 C.ar    1  UNL1        0.0194
     29 C          63.5025   91.3720    9.9291 C.ar    1  UNL1        0.0016
     30 C          62.6487   90.1707    9.6500 C.ar    1  UNL1        0.0029
     31 C          62.4265   89.1434   10.7202 C.ar    1  UNL1        0.0347
     32 C          63.0581   89.3174   12.0695 C.ar    1  UNL1        0.0029
     33 C          63.9119   90.5187   12.3487 C.ar    1  UNL1        0.0016
     34 C          66.7734   96.0799   10.6795 C.3     1  UNL1        0.0515
     35 C          66.2011   94.8313   11.2823 C.ar    1  UNL1        0.0535
     36 C          65.3268   93.8343   10.5812 C.ar    1  UNL1        0.0349
     37 C          64.9879   92.7473   11.5577 C.ar    1  UNL1        0.1018
     38 N          65.6527   93.0725   12.8624 N.ar    1  UNL1       -0.1730
     39 N          66.4025   94.3604   12.6922 N.ar    1  UNL1       -0.2798
     40 H          66.9335   94.8167   13.3844 H       1  UNL1        0.1886
@<TRIPOS>BOND
     1    34    35    1
     2    35    36   ar
     3    36    37   ar
     4    37    28    1
     5    28    29   ar
     6    29    30   ar
     7    30    31   ar
     8    31    26    1
     9    26    27    2
    10     1    26    1
    11     1     2    1
    12     2     3    1
    13     3     4    1
    14     4     5    1
    15     5     6    1
    16     6     7    1
    17     7     8    2
    18     7     9   am
    19     9    11    1
    20    11    12   ar
    21    12    13   ar
    22    13    14   ar
    23    14    15    1
    24    14    16   ar
    25    16    17    1
    26    17    18    2
    27    17    19   am
    28    19    21    1
    29    21    22    1
    30    22    23    1
    31    22    24    1
    32    22    25    1
    33    31    32   ar
    34    32    33   ar
    35    37    38   ar
    36    38    39   ar
    37    39    35   ar
    38    33    28   ar
    39     6     1    1
    40    16    11   ar
    41     9    10    1
    42    19    20    1
    43    39    40    1
@<TRIPOS>MOLECULE
*****
 40 43 0 0 0
SMALL
GASTEIGER

@<TRIPOS>ATOM
      1 C          61.6545   88.1207   10.6107 C.3     1  UNL1        0.0705
      2 C          60.5266   87.3660    9.9718 C.3     1  UNL1        0.0082
      3 C          59.5881   88.0696    9.0367 C.3     1  UNL1        0.0005
      4 C          59.7776   89.5277    8.7406 C.3     1  UNL1        0.0005
      5 C          60.9055   90.2824    9.3795 C.3     1  UNL1        0.0095
      6 C          61.8440   89.5789   10.3146 C.3     1  UNL1        0.0840
      7 C          62.9719   90.3336   10.9535 C.2     1  UNL1        0.2261
      8 O          64.1453   90.7701   10.1272 O.2     1  UNL1       -0.2748
      9 N          62.9265   90.6518   12.4186 N.am    1  UNL1       -0.2814
     10 H          62.1564   90.3653   12.9609 H       1  UNL1        0.1549
     11 C          64.0544   91.4065   13.0575 C.ar    1  UNL1        0.0935
     12 C          64.9471   92.4012   12.3766 C.ar    1  UNL1        0.1364
     13 N          65.9321   92.9085   13.3877 N.ar    1  UNL1       -0.1662
     14 N          65.6482   92.2272   14.6936 N.ar    1  UNL1       -0.2430
     15 C          66.3939   92.4374   15.9781 C.3     1  UNL1        0.1539
     16 C          64.4878   91.2990   14.4895 C.ar    1  UNL1        0.1480
     17 C          63.8692   90.4179   15.5341 C.2     1  UNL1        0.2866
     18 O          63.3262   91.0189   16.7965 O.2     1  UNL1       -0.2664
     19 N          63.7937   88.9357   15.3161 N.am    1  UNL1       -0.1886
     20 H          64.1501   88.5412   14.4875 H       1  UNL1        0.1829
     21 O          63.1751   88.0546   16.3607 O.3     1  UNL1       -0.2712
     22 C          63.4570   86.5813   16.3618 C.3     1  UNL1        0.1173
     23 C          62.4997   86.3991   17.5020 C.3     1  UNL1        0.0321
     24 C          64.4143   86.7635   15.2215 C.3     1  UNL1        0.0321
     25 C          63.7388   85.1080   16.3629 C.3     1  UNL1        0.0321
     26 C          62.5930   87.4172   11.5458 C.2     1  UNL1        0.1731
     27 O          63.4937   88.2127   12.4435 O.2     1  UNL1       -0.2913
     28 C          62.7063   82.9200   11.6580 C.ar    1  UNL1        0.0194
     29 C          62.4083   83.6941   12.9078 C.ar    1  UNL1        0.0016
     30 C          62.3706   85.1931   12.8703 C.ar    1  UNL1        0.0029
     31 C          62.6307   85.9180   11.5832 C.ar    1  UNL1        0.0347
     32 C          62.9287   85.1439   10.3334 C.ar    1  UNL1        0.0029
     33 C          62.9664   83.6449   10.3708 C.ar    1  UNL1        0.0016
     34 C          62.9984   77.8650   10.1602 C.3     1  UNL1        0.0515
     35 C          62.8783   79.0974   11.0069 C.ar    1  UNL1        0.0535
     36 C          62.8894   80.5128   10.5104 C.ar    1  UNL1        0.0349
     37 C          62.7440   81.4209   11.6954 C.ar    1  UNL1        0.1018
     38 N          62.6431   80.5667   12.9243 N.ar    1  UNL1       -0.1730
     39 N          62.7260   79.1308   12.4988 N.ar    1  UNL1       -0.2798
     40 H          62.6874   78.3476   13.0942 H       1  UNL1        0.1886
@<TRIPOS>BOND
     1    34    35    1
     2    35    36   ar
     3    36    37   ar
     4    37    28    1
     5    28    29   ar
     6    29    30   ar
     7    30    31   ar
     8    31    26    1
     9    26    27    2
    10     1    26    1
    11     1     2    1
    12     2     3    1
    13     3     4    1
    14     4     5    1
    15     5     6    1
    16     6     7    1
    17     7     8    2
    18     7     9   am
    19     9    11    1
    20    11    12   ar
    21    12    13   ar
    22    13    14   ar
    23    14    15    1
    24    14    16   ar
    25    16    17    1
    26    17    18    2
    27    17    19   am
    28    19    21    1
    29    21    22    1
    30    22    23    1
    31    22    24    1
    32    22    25    1
    33    31    32   ar
    34    32    33   ar
    35    37    38   ar
    36    38    39   ar
    37    39    35   ar
    38    33    28   ar
    39     6     1    1
    40    16    11   ar
    41     9    10    1
    42    19    20    1
    43    39    40    1
@<TRIPOS>MOLECULE
*****
 40 43 0 0 0
SMALL
GASTEIGER

@<TRIPOS>ATOM
      1 C          62.0920   85.6910   10.2026 C.3     1  UNL1        0.0705
      2 C          62.1414   85.0818    8.8328 C.3     1  UNL1        0.0082
      3 C          63.1099   83.9747    8.5388 C.3     1  UNL1        0.0005
      4 C          64.0290   83.4769    9.6146 C.3     1  UNL1        0.0005
      5 C          63.9797   84.0861   10.9844 C.3     1  UNL1        0.0095
      6 C          63.0112   85.1932   11.2784 C.3     1  UNL1        0.0840
      7 C          62.9619   85.8024   12.6483 C.2     1  UNL1        0.2261
      8 O          62.2685   85.0806   13.7656 O.2     1  UNL1       -0.2748
      9 N          63.6059   87.1333   12.9008 N.am    1  UNL1       -0.2814
     10 H          64.0610   87.6070   12.1675 H       1  UNL1        0.1549
     11 C          63.5566   87.7426   14.2706 C.ar    1  UNL1        0.0935
     12 C          63.4364   86.9938   15.5648 C.ar    1  UNL1        0.1364
     13 N          63.4243   87.9960   16.6808 N.ar    1  UNL1       -0.1662
     14 N          63.5370   89.3642   16.0763 N.ar    1  UNL1       -0.2430
     15 C          63.5634   90.6613   16.8292 C.3     1  UNL1        0.1539
     16 C          63.6188   89.2075   14.5868 C.ar    1  UNL1        0.1480
     17 C          63.7413   90.3205   13.5886 C.2     1  UNL1        0.2866
     18 O          62.8331   90.3613   12.3956 O.2     1  UNL1       -0.2664
     19 N          64.7720   91.3928   13.7836 N.am    1  UNL1       -0.1886
     20 H          65.3681   91.3660   14.5667 H       1  UNL1        0.1829
     21 O          64.8945   92.5058   12.7855 O.3     1  UNL1       -0.2712
     22 C          66.0201   92.5034   11.7940 C.3     1  UNL1        0.1173
     23 C          67.0089   92.3984   12.9170 C.3     1  UNL1        0.0321
     24 C          65.0312   92.6084   10.6710 C.3     1  UNL1        0.0321
     25 C          67.1457   92.5011   10.8026 C.3     1  UNL1        0.0321
     26 C          61.1236   86.7981   10.4967 C.2     1  UNL1        0.1731
     27 O          60.6405   87.0191   11.8994 O.2     1  UNL1       -0.2913
     28 C          59.6675   89.4564    7.1705 C.ar    1  UNL1        0.0194
     29 C          60.4946   90.0308    8.2822 C.ar    1  UNL1        0.0016
     30 C          60.9799   89.1447    9.3909 C.ar    1  UNL1        0.0029
     31 C          60.6382   87.6842    9.3879 C.ar    1  UNL1        0.0347
     32 C          59.8111   87.1097    8.2762 C.ar    1  UNL1        0.0029
     33 C          59.3257   87.9958    7.1676 C.ar    1  UNL1        0.0016
     34 C          59.5864   92.7635    3.0550 C.3     1  UNL1        0.0515
     35 C          59.1449   91.8626    4.1701 C.ar    1  UNL1        0.0535
     36 C          60.0450   91.1166    5.1099 C.ar    1  UNL1        0.0349
     37 C          59.1821   90.3425    6.0618 C.ar    1  UNL1        0.1018
     38 N          57.7486   90.6100    5.7103 N.ar    1  UNL1       -0.1730
     39 N          57.7256   91.5494    4.5412 N.ar    1  UNL1       -0.2798
     40 H          56.9203   91.8991    4.0956 H       1  UNL1        0.1886
@<TRIPOS>BOND
     1    34    35    1
     2    35    36   ar
     3    36    37   ar
     4    37    28    1
     5    28    29   ar
     6    29    30   ar
     7    30    31   ar
     8    31    26    1
     9    26    27    2
    10     1    26    1
    11     1     2    1
    12     2     3    1
    13     3     4    1
    14     4     5    1
    15     5     6    1
    16     6     7    1
    17     7     8    2
    18     7     9   am
    19     9    11    1
    20    11    12   ar
    21    12    13   ar
    22    13    14   ar
    23    14    15    1
    24    14    16   ar
    25    16    17    1
    26    17    18    2
    27    17    19   am
    28    19    21    1
    29    21    22    1
    30    22    23    1
    31    22    24    1
    32    22    25    1
    33    31    32   ar
    34    32    33   ar
    35    37    38   ar
    36    38    39   ar
    37    39    35   ar
    38    33    28   ar
    39     6     1    1
    40    16    11   ar
    41     9    10    1
    42    19    20    1
    43    39    40    1
@<TRIPOS>MOLECULE
*****
 40 43 0 0 0
SMALL
GASTEIGER

@<TRIPOS>ATOM
      1 C          64.6079   91.4619   12.7108 C.3     1  UNL1        0.0705
      2 C          65.3204   92.3834   11.7658 C.3     1  UNL1        0.0082
      3 C          66.7826   92.6630   11.9504 C.3     1  UNL1        0.0005
      4 C          67.5321   92.0211   13.0801 C.3     1  UNL1        0.0005
      5 C          66.8196   91.0996   14.0251 C.3     1  UNL1        0.0095
      6 C          65.3575   90.8200   13.8405 C.3     1  UNL1        0.0840
      7 C          64.6450   89.8985   14.7855 C.2     1  UNL1        0.2261
      8 O          63.9404   90.4549   15.9873 O.2     1  UNL1       -0.2748
      9 N          64.6369   88.4206   14.5289 N.am    1  UNL1       -0.2814
     10 H          65.0993   88.0555   13.7401 H       1  UNL1        0.1549
     11 C          63.9243   87.4991   15.4739 C.ar    1  UNL1        0.0935
     12 C          63.1119   87.9135   16.6648 C.ar    1  UNL1        0.1364
     13 N          62.5845   86.6719   17.3209 N.ar    1  UNL1       -0.1662
     14 N          63.0711   85.4902   16.5355 N.ar    1  UNL1       -0.2430
     15 C          62.7806   84.0501   16.8383 C.3     1  UNL1        0.1539
     16 C          63.8991   86.0015   15.3940 C.ar    1  UNL1        0.1480
     17 C          64.5821   85.1624   14.3550 C.2     1  UNL1        0.2866
     18 O          66.0519   84.8840   14.4631 O.2     1  UNL1       -0.2664
     19 N          63.7950   84.6016   13.2077 N.am    1  UNL1       -0.1886
     20 H          62.8302   84.7843   13.1367 H       1  UNL1        0.1829
     21 O          64.4779   83.7625   12.1687 O.3     1  UNL1       -0.2712
     22 C          63.7763   82.5711   11.5871 C.3     1  UNL1        0.1173
     23 C          63.5421   82.0348   12.9682 C.3     1  UNL1        0.0321
     24 C          64.0104   83.1074   10.2059 C.3     1  UNL1        0.0321
     25 C          63.0746   81.3797   11.0055 C.3     1  UNL1        0.0321
     26 C          63.1458   91.1823   12.5262 C.2     1  UNL1        0.1731
     27 O          62.1287   91.9641   13.3036 O.2     1  UNL1       -0.2913
     28 C          61.8108   87.9982    9.6402 C.ar    1  UNL1        0.0194
     29 C          61.6083   89.4462    9.3056 C.ar    1  UNL1        0.0016
     30 C          62.0533   90.5076   10.2676 C.ar    1  UNL1        0.0029
     31 C          62.7008   90.1208   11.5642 C.ar    1  UNL1        0.0347
     32 C          62.9033   88.6728   11.8988 C.ar    1  UNL1        0.0029
     33 C          62.4583   87.6114   10.9368 C.ar    1  UNL1        0.0016
     34 C          61.8782   84.0454    6.1398 C.3     1  UNL1        0.0515
     35 C          61.3968   85.1198    7.0692 C.ar    1  UNL1        0.0535
     36 C          62.2623   86.0159    7.9047 C.ar    1  UNL1        0.0349
     37 C          61.3658   86.9367    8.6782 C.ar    1  UNL1        0.1018
     38 N          59.9462   86.6097    8.3209 N.ar    1  UNL1       -0.1730
     39 N          59.9653   85.4869    7.3265 N.ar    1  UNL1       -0.2798
     40 H          59.1768   85.0649    6.9149 H       1  UNL1        0.1886
@<TRIPOS>BOND
     1    34    35    1
     2    35    36   ar
     3    36    37   ar
     4    37    28    1
     5    28    29   ar
     6    29    30   ar
     7    30    31   ar
     8    31    26    1
     9    26    27    2
    10     1    26    1
    11     1     2    1
    12     2     3    1
    13     3     4    1
    14     4     5    1
    15     5     6    1
    16     6     7    1
    17     7     8    2
    18     7     9   am
    19     9    11    1
    20    11    12   ar
    21    12    13   ar
    22    13    14   ar
    23    14    15    1
    24    14    16   ar
    25    16    17    1
    26    17    18    2
    27    17    19   am
    28    19    21    1
    29    21    22    1
    30    22    23    1
    31    22    24    1
    32    22    25    1
    33    31    32   ar
    34    32    33   ar
    35    37    38   ar
    36    38    39   ar
    37    39    35   ar
    38    33    28   ar
    39     6     1    1
    40    16    11   ar
    41     9    10    1
    42    19    20    1
    43    39    40    1
