@<TRIPOS>MOLECULE
*****
 39 43 0 0 0
SMALL
GASTEIGER

@<TRIPOS>ATOM
      1 C          62.0274   88.3188   11.9921 C.3     1  UNL1        0.1631
      2 N          62.1485   86.9477   11.3959 N.ar    1  UNL1       -0.3047
      3 C          61.6083   86.5140   10.0654 C.ar    1  UNL1        0.1441
      4 N          61.9569   85.0679    9.8727 N.ar    1  UNL1       -0.2267
      5 C          62.7125   84.6078   11.0841 C.ar    1  UNL1        0.1010
      6 C          63.3081   83.2811   11.4516 C.ar    1  UNL1        0.0526
      7 C          64.0220   83.1161   12.7605 C.ar    1  UNL1        0.1690
      8 F          64.6176   81.7893   13.1279 F       1  UNL1       -0.2017
      9 C          64.1404   84.2779   13.7019 C.ar    1  UNL1        0.1689
     10 F          64.8543   84.1129   15.0107 F       1  UNL1       -0.2017
     11 C          63.5449   85.6046   13.3344 C.ar    1  UNL1        0.0507
     12 C          62.8309   85.7696   12.0255 C.ar    1  UNL1        0.0816
     13 C          60.8523   87.3753    9.0976 C.ar    1  UNL1        0.0342
     14 C          59.7314   86.7905    8.2904 C.ar    1  UNL1        0.0039
     15 C          58.9754   87.6517    7.3226 C.ar    1  UNL1        0.0115
     16 C          59.3403   89.0977    7.1620 C.ar    1  UNL1        0.0577
     17 CL         58.5842   89.9590    6.1942 Cl      1  UNL1       -0.0822
     18 C          60.4612   89.6825    7.9692 C.ar    1  UNL1        0.0115
     19 C          61.2172   88.8213    8.9370 C.ar    1  UNL1        0.0039
     20 C          60.7107   89.0364   11.9615 C.3     1  UNL1        0.0297
     21 C          60.6330   90.4392   11.4362 C.3     1  UNL1        0.0024
     22 C          59.3162   91.1568   11.4055 C.3     1  UNL1        0.0001
     23 C          58.0769   90.4716   11.9003 C.3     1  UNL1        0.0000
     24 C          58.1545   89.0688   12.4257 C.3     1  UNL1        0.0001
     25 C          59.4714   88.3512   12.4563 C.3     1  UNL1        0.0024
     26 N          63.4998   90.4256   12.3713 N.am    1  UNL1       -0.2826
     27 C          63.2233   88.9723   12.6191 C.2     1  UNL1        0.2468
     28 O          64.1427   88.1724   13.4937 O.2     1  UNL1       -0.2727
     29 H          62.8964   90.9506   11.7972 H       1  UNL1        0.1549
     30 C          65.1064   92.4237   10.8134 C.3     1  UNL1        0.0323
     31 C          65.4989   92.0780   12.2193 C.ar    1  UNL1       -0.0083
     32 C          66.6947   92.7314   12.8463 C.ar    1  UNL1       -0.0019
     33 C          67.0873   92.3858   14.2522 C.ar    1  UNL1        0.0138
     34 C          66.2840   91.3868   15.0310 C.ar    1  UNL1        0.0024
     35 C          65.0881   90.7334   14.4040 C.ar    1  UNL1        0.0144
     36 C          64.6956   91.0790   12.9982 C.ar    1  UNL1        0.0463
     37 C          68.2831   93.0392   14.8791 C.2     1  UNL1        0.0729
     38 O          68.1036   93.9887   16.0263 O.co2   1  UNL1       -0.5446
     39 O          69.6584   92.7430   14.3587 O.co2   1  UNL1       -0.5446
@<TRIPOS>UNITY_ATOM_ATTR
38 1
charge -1
@<TRIPOS>BOND
     1    30    31    1
     2    31    32   ar
     3    32    33   ar
     4    33    37    1
     5    37    38   ar
     6    37    39   ar
     7    33    34   ar
     8    34    35   ar
     9    35    36   ar
    10    36    26    1
    11    26    27   am
    12    27    28    2
    13    27     1    1
    14     1    20    1
    15    20    21    1
    16    21    22    1
    17    22    23    1
    18    23    24    1
    19    24    25    1
    20     1     2    1
    21     2     3   ar
    22     3    13    1
    23    13    14   ar
    24    14    15   ar
    25    15    16   ar
    26    16    17    1
    27    16    18   ar
    28    18    19   ar
    29     3     4   ar
    30     4     5   ar
    31     5     6   ar
    32     6     7   ar
    33     7     8    1
    34     7     9   ar
    35     9    10    1
    36     9    11   ar
    37    11    12   ar
    38    36    31   ar
    39    25    20    1
    40    12     2   ar
    41    19    13   ar
    42    12     5   ar
    43    26    29    1
@<TRIPOS>MOLECULE
*****
 39 43 0 0 0
SMALL
GASTEIGER

@<TRIPOS>ATOM
      1 C          62.9882   84.9389   12.0929 C.3     1  UNL1        0.1631
      2 N          62.8574   83.6147   12.7852 N.ar    1  UNL1       -0.3047
      3 C          62.7259   83.4022   14.2642 C.ar    1  UNL1        0.1441
      4 N          62.6224   81.9266   14.5131 N.ar    1  UNL1       -0.2267
      5 C          62.6899   81.2272   13.1879 C.ar    1  UNL1        0.1010
      6 C          62.6379   79.7750   12.8156 C.ar    1  UNL1        0.0526
      7 C          62.7310   79.3662   11.3754 C.ar    1  UNL1        0.1690
      8 F          62.6790   77.9140   11.0031 F       1  UNL1       -0.2017
      9 C          62.8763   80.4094   10.3075 C.ar    1  UNL1        0.1689
     10 F          62.9694   80.0006    8.8672 F       1  UNL1       -0.2017
     11 C          62.9283   81.8616   10.6797 C.ar    1  UNL1        0.0507
     12 C          62.8351   82.2704   12.1199 C.ar    1  UNL1        0.0816
     13 C          62.7022   84.4766   15.3106 C.ar    1  UNL1        0.0342
     14 C          63.9584   84.8320   16.0493 C.ar    1  UNL1        0.0039
     15 C          63.9346   85.9065   17.0957 C.ar    1  UNL1        0.0115
     16 C          62.6548   86.6255   17.4034 C.ar    1  UNL1        0.0577
     17 CL         62.6311   87.7000   18.4498 Cl      1  UNL1       -0.0822
     18 C          61.3986   86.2702   16.6647 C.ar    1  UNL1        0.0115
     19 C          61.4222   85.1958   15.6183 C.ar    1  UNL1        0.0039
     20 C          62.5655   85.0816   10.6608 C.3     1  UNL1        0.0297
     21 C          63.4436   84.5568    9.5638 C.3     1  UNL1        0.0024
     22 C          63.0208   84.6996    8.1317 C.3     1  UNL1        0.0001
     23 C          61.7200   85.3671    7.7966 C.3     1  UNL1        0.0000
     24 C          60.8419   85.8919    8.8936 C.3     1  UNL1        0.0001
     25 C          61.2646   85.7491   10.3257 C.3     1  UNL1        0.0024
     26 N          63.0058   87.4948   12.5596 N.am    1  UNL1       -0.2826
     27 C          63.5417   86.1206   12.8328 C.2     1  UNL1        0.2468
     28 O          64.6310   85.9281   13.8459 O.2     1  UNL1       -0.2727
     29 H          62.2909   87.6211   11.8946 H       1  UNL1        0.1549
     30 C          63.0256   90.2008   11.2645 C.3     1  UNL1        0.0323
     31 C          63.5693   90.0293   12.6519 C.ar    1  UNL1       -0.0083
     32 C          64.1228   91.2108   13.3919 C.ar    1  UNL1       -0.0019
     33 C          64.6665   91.0394   14.7794 C.ar    1  UNL1        0.0138
     34 C          64.6565   89.6864   15.4269 C.ar    1  UNL1        0.0024
     35 C          64.1030   88.5048   14.6869 C.ar    1  UNL1        0.0144
     36 C          63.5593   88.6763   13.2994 C.ar    1  UNL1        0.0463
     37 C          65.2200   92.2210   15.5193 C.2     1  UNL1        0.0729
     38 O          64.7630   92.5113   16.9182 O.co2   1  UNL1       -0.5446
     39 O          66.2305   93.1123   14.8603 O.co2   1  UNL1       -0.5446
@<TRIPOS>UNITY_ATOM_ATTR
38 1
charge -1
@<TRIPOS>BOND
     1    30    31    1
     2    31    32   ar
     3    32    33   ar
     4    33    37    1
     5    37    38   ar
     6    37    39   ar
     7    33    34   ar
     8    34    35   ar
     9    35    36   ar
    10    36    26    1
    11    26    27   am
    12    27    28    2
    13    27     1    1
    14     1    20    1
    15    20    21    1
    16    21    22    1
    17    22    23    1
    18    23    24    1
    19    24    25    1
    20     1     2    1
    21     2     3   ar
    22     3    13    1
    23    13    14   ar
    24    14    15   ar
    25    15    16   ar
    26    16    17    1
    27    16    18   ar
    28    18    19   ar
    29     3     4   ar
    30     4     5   ar
    31     5     6   ar
    32     6     7   ar
    33     7     8    1
    34     7     9   ar
    35     9    10    1
    36     9    11   ar
    37    11    12   ar
    38    36    31   ar
    39    25    20    1
    40    12     2   ar
    41    19    13   ar
    42    12     5   ar
    43    26    29    1
@<TRIPOS>MOLECULE
*****
 39 43 0 0 0
SMALL
GASTEIGER

@<TRIPOS>ATOM
      1 C          63.0660   88.9512   12.3501 C.3     1  UNL1        0.1631
      2 N          63.9305   89.9439   13.0692 N.ar    1  UNL1       -0.3047
      3 C          64.2983   89.9027   14.5229 C.ar    1  UNL1        0.1441
      4 N          65.1741   91.0854   14.8130 N.ar    1  UNL1       -0.2267
      5 C          65.3476   91.8575   13.5387 C.ar    1  UNL1        0.1010
      6 C          66.1061   93.1119   13.2205 C.ar    1  UNL1        0.0526
      7 C          66.0960   93.6607   11.8246 C.ar    1  UNL1        0.1690
      8 F          66.8545   94.9151   11.5064 F       1  UNL1       -0.2017
      9 C          65.3274   92.9552   10.7468 C.ar    1  UNL1        0.1689
     10 F          65.3173   93.5040    9.3508 F       1  UNL1       -0.2017
     11 C          64.5689   91.7009   11.0650 C.ar    1  UNL1        0.0507
     12 C          64.5790   91.1520   12.4610 C.ar    1  UNL1        0.0816
     13 C          63.8662   88.8617   15.5125 C.ar    1  UNL1        0.0342
     14 C          64.2607   87.4282   15.3135 C.ar    1  UNL1        0.0039
     15 C          63.8286   86.3871   16.3032 C.ar    1  UNL1        0.0115
     16 C          63.0020   86.7795   17.4917 C.ar    1  UNL1        0.0577
     17 CL         62.5699   85.7383   18.4814 Cl      1  UNL1       -0.0822
     18 C          62.6076   88.2129   17.6907 C.ar    1  UNL1        0.0115
     19 C          63.0396   89.2540   16.7011 C.ar    1  UNL1        0.0039
     20 C          61.9852   89.4285   11.4261 C.3     1  UNL1        0.0297
     21 C          62.1091   89.2050    9.9480 C.3     1  UNL1        0.0024
     22 C          61.0282   89.6823    9.0241 C.3     1  UNL1        0.0001
     23 C          59.8233   90.3831    9.5781 C.3     1  UNL1        0.0000
     24 C          59.6992   90.6066   11.0562 C.3     1  UNL1        0.0001
     25 C          60.7802   90.1293   11.9802 C.3     1  UNL1        0.0024
     26 N          62.2417   86.4996   12.1035 N.am    1  UNL1       -0.2826
     27 C          63.2824   87.4810   12.5550 C.2     1  UNL1        0.2468
     28 O          64.5396   86.9923   13.2113 O.2     1  UNL1       -0.2727
     29 H          61.4166   86.8204   11.6728 H       1  UNL1        0.1549
     30 C          63.0147   84.7597    9.7851 C.3     1  UNL1        0.0323
     31 C          62.8447   84.1596   11.1492 C.ar    1  UNL1       -0.0083
     32 C          63.0611   82.6895   11.3543 C.ar    1  UNL1       -0.0019
     33 C          62.8911   82.0894   12.7184 C.ar    1  UNL1        0.0138
     34 C          62.5046   82.9593   13.8776 C.ar    1  UNL1        0.0024
     35 C          62.2881   84.4295   13.6726 C.ar    1  UNL1        0.0144
     36 C          62.4582   85.0296   12.3084 C.ar    1  UNL1        0.0463
     37 C          63.1075   80.6193   12.9233 C.2     1  UNL1        0.0729
     38 O          62.7231   79.6474   11.8474 O.co2   1  UNL1       -0.5446
     39 O          63.7085   80.1212   14.2042 O.co2   1  UNL1       -0.5446
@<TRIPOS>UNITY_ATOM_ATTR
38 1
charge -1
@<TRIPOS>BOND
     1    30    31    1
     2    31    32   ar
     3    32    33   ar
     4    33    37    1
     5    37    38   ar
     6    37    39   ar
     7    33    34   ar
     8    34    35   ar
     9    35    36   ar
    10    36    26    1
    11    26    27   am
    12    27    28    2
    13    27     1    1
    14     1    20    1
    15    20    21    1
    16    21    22    1
    17    22    23    1
    18    23    24    1
    19    24    25    1
    20     1     2    1
    21     2     3   ar
    22     3    13    1
    23    13    14   ar
    24    14    15   ar
    25    15    16   ar
    26    16    17    1
    27    16    18   ar
    28    18    19   ar
    29     3     4   ar
    30     4     5   ar
    31     5     6   ar
    32     6     7   ar
    33     7     8    1
    34     7     9   ar
    35     9    10    1
    36     9    11   ar
    37    11    12   ar
    38    36    31   ar
    39    25    20    1
    40    12     2   ar
    41    19    13   ar
    42    12     5   ar
    43    26    29    1
@<TRIPOS>MOLECULE
*****
 39 43 0 0 0
SMALL
GASTEIGER

@<TRIPOS>ATOM
      1 C          62.8728   85.6130   11.2060 C.3     1  UNL1        0.1631
      2 N          63.2084   86.1641   12.5601 N.ar    1  UNL1       -0.3047
      3 C          63.3813   85.3663   13.8185 C.ar    1  UNL1        0.1441
      4 N          63.7098   86.3188   14.9297 N.ar    1  UNL1       -0.2267
      5 C          63.7399   87.7053   14.3580 C.ar    1  UNL1        0.1010
      6 C          64.0094   89.0425   14.9818 C.ar    1  UNL1        0.0526
      7 C          63.9690   90.2841   14.1411 C.ar    1  UNL1        0.1690
      8 F          64.2386   91.6214   14.7649 F       1  UNL1       -0.2017
      9 C          63.6591   90.1885   12.6765 C.ar    1  UNL1        0.1689
     10 F          63.6188   91.4301   11.8358 F       1  UNL1       -0.2017
     11 C          63.3896   88.8512   12.0528 C.ar    1  UNL1        0.0507
     12 C          63.4300   87.6096   12.8935 C.ar    1  UNL1        0.0816
     13 C          63.2490   83.8774   13.9438 C.ar    1  UNL1        0.0342
     14 C          64.4358   82.9952   13.6923 C.ar    1  UNL1        0.0039
     15 C          64.3035   81.5063   13.8176 C.ar    1  UNL1        0.0115
     16 C          62.9845   80.8997   14.1942 C.ar    1  UNL1        0.0577
     17 CL         62.8522   79.4107   14.3194 Cl      1  UNL1       -0.0822
     18 C          61.7977   81.7818   14.4456 C.ar    1  UNL1        0.0115
     19 C          61.9299   83.2707   14.3204 C.ar    1  UNL1        0.0039
     20 C          63.0963   84.1593   10.9113 C.3     1  UNL1        0.0297
     21 C          62.0035   83.1649   11.1700 C.3     1  UNL1        0.0024
     22 C          62.2271   81.7112   10.8754 C.3     1  UNL1        0.0001
     23 C          63.5434   81.2519   10.3220 C.3     1  UNL1        0.0000
     24 C          64.6363   82.2463   10.0632 C.3     1  UNL1        0.0001
     25 C          64.4127   83.7000   10.3579 C.3     1  UNL1        0.0024
     26 N          60.8596   86.8839   10.1657 N.am    1  UNL1       -0.2826
     27 C          62.3136   86.5156   10.1464 C.2     1  UNL1        0.2468
     28 O          63.2084   87.0499    9.0675 O.2     1  UNL1       -0.2727
     29 H          60.2723   86.5333   10.8737 H       1  UNL1        0.1549
     30 C          59.9250   85.7352    7.5566 C.3     1  UNL1        0.0323
     31 C          59.8333   87.2122    7.8016 C.ar    1  UNL1       -0.0083
     32 C          59.2742   88.1149    6.7421 C.ar    1  UNL1       -0.0019
     33 C          59.1824   89.5919    6.9870 C.ar    1  UNL1        0.0138
     34 C          59.6497   90.1663    8.2915 C.ar    1  UNL1        0.0024
     35 C          60.2088   89.2635    9.3511 C.ar    1  UNL1        0.0144
     36 C          60.3006   87.7865    9.1061 C.ar    1  UNL1        0.0463
     37 C          58.6233   90.4945    5.9275 C.2     1  UNL1        0.0729
     38 O          59.5491   91.2698    5.0376 O.co2   1  UNL1       -0.5446
     39 O          57.1384   90.6218    5.7578 O.co2   1  UNL1       -0.5446
@<TRIPOS>UNITY_ATOM_ATTR
38 1
charge -1
@<TRIPOS>BOND
     1    30    31    1
     2    31    32   ar
     3    32    33   ar
     4    33    37    1
     5    37    38   ar
     6    37    39   ar
     7    33    34   ar
     8    34    35   ar
     9    35    36   ar
    10    36    26    1
    11    26    27   am
    12    27    28    2
    13    27     1    1
    14     1    20    1
    15    20    21    1
    16    21    22    1
    17    22    23    1
    18    23    24    1
    19    24    25    1
    20     1     2    1
    21     2     3   ar
    22     3    13    1
    23    13    14   ar
    24    14    15   ar
    25    15    16   ar
    26    16    17    1
    27    16    18   ar
    28    18    19   ar
    29     3     4   ar
    30     4     5   ar
    31     5     6   ar
    32     6     7   ar
    33     7     8    1
    34     7     9   ar
    35     9    10    1
    36     9    11   ar
    37    11    12   ar
    38    36    31   ar
    39    25    20    1
    40    12     2   ar
    41    19    13   ar
    42    12     5   ar
    43    26    29    1
@<TRIPOS>MOLECULE
*****
 39 43 0 0 0
SMALL
GASTEIGER

@<TRIPOS>ATOM
      1 C          63.3645   89.3207   12.9974 C.3     1  UNL1        0.1631
      2 N          63.6248   90.3207   11.9101 N.ar    1  UNL1       -0.3047
      3 C          62.9752   90.3423   10.5582 C.ar    1  UNL1        0.1441
      4 N          63.5293   91.5096    9.7964 N.ar    1  UNL1       -0.2267
      5 C          64.5213   92.2094   10.6775 C.ar    1  UNL1        0.1010
      6 C          65.3785   93.4207   10.4590 C.ar    1  UNL1        0.0526
      7 C          66.2947   93.8973   11.5468 C.ar    1  UNL1        0.1690
      8 F          67.1519   95.1088   11.3283 F       1  UNL1       -0.2017
      9 C          66.3537   93.1625   12.8532 C.ar    1  UNL1        0.1689
     10 F          67.2699   93.6391   13.9411 F       1  UNL1       -0.2017
     11 C          65.4965   91.9512   13.0717 C.ar    1  UNL1        0.0507
     12 C          64.5803   91.4746   11.9838 C.ar    1  UNL1        0.0816
     13 C          61.9514   89.3677   10.0563 C.ar    1  UNL1        0.0342
     14 C          60.4901   89.6748   10.1995 C.ar    1  UNL1        0.0039
     15 C          59.4663   88.7003    9.6976 C.ar    1  UNL1        0.0115
     16 C          59.9036   87.4187    9.0526 C.ar    1  UNL1        0.0577
     17 CL         58.8797   86.4441    8.5507 Cl      1  UNL1       -0.0822
     18 C          61.3648   87.1116    8.9094 C.ar    1  UNL1        0.0115
     19 C          62.3887   88.0860    9.4113 C.ar    1  UNL1        0.0039
     20 C          63.4138   89.7458   14.4350 C.3     1  UNL1        0.0297
     21 C          63.7856   91.1555   14.7879 C.3     1  UNL1        0.0024
     22 C          63.8349   91.5806   16.2256 C.3     1  UNL1        0.0001
     23 C          63.5124   90.5961   17.3103 C.3     1  UNL1        0.0000
     24 C          63.1405   89.1864   16.9575 C.3     1  UNL1        0.0001
     25 C          63.0912   88.7613   15.5198 C.3     1  UNL1        0.0024
     26 N          63.9827   86.7984   13.0783 N.am    1  UNL1       -0.2826
     27 C          63.0548   87.8953   12.6471 C.2     1  UNL1        0.2468
     28 O          61.8174   87.5669   11.8656 O.2     1  UNL1       -0.2727
     29 H          64.7949   87.0140   13.5913 H       1  UNL1        0.1549
     30 C          63.8043   84.7268   15.2410 C.3     1  UNL1        0.0323
     31 C          63.5838   84.3374   13.8093 C.ar    1  UNL1       -0.0083
     32 C          63.2742   82.9122   13.4588 C.ar    1  UNL1       -0.0019
     33 C          63.0536   82.5227   12.0271 C.ar    1  UNL1        0.0138
     34 C          63.1428   83.5585   10.9459 C.ar    1  UNL1        0.0024
     35 C          63.4525   84.9838   11.2963 C.ar    1  UNL1        0.0144
     36 C          63.6730   85.3732   12.7280 C.ar    1  UNL1        0.0463
     37 C          62.7440   81.0975   11.6768 C.2     1  UNL1        0.0729
     38 O          62.8777   80.6276   10.2586 O.co2   1  UNL1       -0.5446
     39 O          62.3005   80.1420   12.7447 O.co2   1  UNL1       -0.5446
@<TRIPOS>UNITY_ATOM_ATTR
38 1
charge -1
@<TRIPOS>BOND
     1    30    31    1
     2    31    32   ar
     3    32    33   ar
     4    33    37    1
     5    37    38   ar
     6    37    39   ar
     7    33    34   ar
     8    34    35   ar
     9    35    36   ar
    10    36    26    1
    11    26    27   am
    12    27    28    2
    13    27     1    1
    14     1    20    1
    15    20    21    1
    16    21    22    1
    17    22    23    1
    18    23    24    1
    19    24    25    1
    20     1     2    1
    21     2     3   ar
    22     3    13    1
    23    13    14   ar
    24    14    15   ar
    25    15    16   ar
    26    16    17    1
    27    16    18   ar
    28    18    19   ar
    29     3     4   ar
    30     4     5   ar
    31     5     6   ar
    32     6     7   ar
    33     7     8    1
    34     7     9   ar
    35     9    10    1
    36     9    11   ar
    37    11    12   ar
    38    36    31   ar
    39    25    20    1
    40    12     2   ar
    41    19    13   ar
    42    12     5   ar
    43    26    29    1
@<TRIPOS>MOLECULE
*****
 39 43 0 0 0
SMALL
GASTEIGER

@<TRIPOS>ATOM
      1 C          62.9208   88.2326   12.1321 C.3     1  UNL1        0.1631
      2 N          63.4753   87.2481   13.1186 N.ar    1  UNL1       -0.3047
      3 C          64.0594   87.5780   14.4602 C.ar    1  UNL1        0.1441
      4 N          64.4881   86.2946   15.1074 N.ar    1  UNL1       -0.2267
      5 C          64.1690   85.1714   14.1658 C.ar    1  UNL1        0.1010
      6 C          64.3675   83.6882   14.2689 C.ar    1  UNL1        0.0526
      7 C          63.9401   82.7943   13.1427 C.ar    1  UNL1        0.1690
      8 F          64.1386   81.3110   13.2458 F       1  UNL1       -0.2017
      9 C          63.3141   83.3835   11.9135 C.ar    1  UNL1        0.1689
     10 F          62.8867   82.4896   10.7874 F       1  UNL1       -0.2017
     11 C          63.1156   84.8667   11.8105 C.ar    1  UNL1        0.0507
     12 C          63.5430   85.7607   12.9366 C.ar    1  UNL1        0.0816
     13 C          64.1915   88.9505   15.0508 C.ar    1  UNL1        0.0342
     14 C          63.1628   89.4519   16.0205 C.ar    1  UNL1        0.0039
     15 C          63.2949   90.8244   16.6111 C.ar    1  UNL1        0.0115
     16 C          64.4557   91.6954   16.2321 C.ar    1  UNL1        0.0577
     17 CL         64.5878   93.0679   16.8228 Cl      1  UNL1       -0.0822
     18 C          65.4845   91.1940   15.2625 C.ar    1  UNL1        0.0115
     19 C          65.3524   89.8216   14.6718 C.ar    1  UNL1        0.0039
     20 C          61.9165   87.7868   11.1111 C.3     1  UNL1        0.0297
     21 C          62.3660   87.0260    9.8991 C.3     1  UNL1        0.0024
     22 C          61.3616   86.5802    8.8782 C.3     1  UNL1        0.0001
     23 C          59.9076   86.8951    9.0692 C.3     1  UNL1        0.0000
     24 C          59.4579   87.6559   10.2812 C.3     1  UNL1        0.0001
     25 C          60.4623   88.1017   11.3022 C.3     1  UNL1        0.0024
     26 N          64.6129   90.0766   11.4343 N.am    1  UNL1       -0.2826
     27 C          63.3708   89.6632   12.1665 C.2     1  UNL1        0.2468
     28 O          62.5785   90.6804   12.9332 O.2     1  UNL1       -0.2727
     29 H          65.1329   89.4090   10.9311 H       1  UNL1        0.1549
     30 C          63.3753   92.0835    9.5794 C.3     1  UNL1        0.0323
     31 C          64.4440   92.5106   10.5414 C.ar    1  UNL1       -0.0083
     32 C          64.8939   93.9411   10.5760 C.ar    1  UNL1       -0.0019
     33 C          65.9627   94.3682   11.5380 C.ar    1  UNL1        0.0138
     34 C          66.5815   93.3648   12.4654 C.ar    1  UNL1        0.0024
     35 C          66.1315   91.9342   12.4309 C.ar    1  UNL1        0.0144
     36 C          65.0628   91.5071   11.4689 C.ar    1  UNL1        0.0463
     37 C          66.4125   95.7987   11.5725 C.2     1  UNL1        0.0729
     38 O          67.1972   96.3661   10.4270 O.co2   1  UNL1       -0.5446
     39 O          66.0776   96.6619   12.7527 O.co2   1  UNL1       -0.5446
@<TRIPOS>UNITY_ATOM_ATTR
38 1
charge -1
@<TRIPOS>BOND
     1    30    31    1
     2    31    32   ar
     3    32    33   ar
     4    33    37    1
     5    37    38   ar
     6    37    39   ar
     7    33    34   ar
     8    34    35   ar
     9    35    36   ar
    10    36    26    1
    11    26    27   am
    12    27    28    2
    13    27     1    1
    14     1    20    1
    15    20    21    1
    16    21    22    1
    17    22    23    1
    18    23    24    1
    19    24    25    1
    20     1     2    1
    21     2     3   ar
    22     3    13    1
    23    13    14   ar
    24    14    15   ar
    25    15    16   ar
    26    16    17    1
    27    16    18   ar
    28    18    19   ar
    29     3     4   ar
    30     4     5   ar
    31     5     6   ar
    32     6     7   ar
    33     7     8    1
    34     7     9   ar
    35     9    10    1
    36     9    11   ar
    37    11    12   ar
    38    36    31   ar
    39    25    20    1
    40    12     2   ar
    41    19    13   ar
    42    12     5   ar
    43    26    29    1
