@<TRIPOS>MOLECULE
*****
 36 39 0 0 0
SMALL
GASTEIGER

@<TRIPOS>ATOM
      1 N          63.0229   90.8392   11.7230 N.am    1  UNL1       -0.2438
      2 C          63.5395   91.4719   10.4649 C.3     1  UNL1        0.1009
      3 C          64.7269   92.3869   10.5183 C.3     1  UNL1        0.0662
      4 C          65.3978   92.6691   11.8299 C.3     1  UNL1        0.1600
      5 O          64.8812   92.0365   13.0880 O.3     1  UNL1       -0.4374
      6 C          63.6938   91.1215   13.0346 C.2     1  UNL1        0.4051
      7 O          63.1772   90.4888   14.2927 O.2     1  UNL1       -0.2262
      8 C          66.2501   93.5001   10.9172 C.ar    1  UNL1        0.0138
      9 C          67.1603   92.8341    9.9283 C.ar    1  UNL1       -0.0010
     10 C          68.0126   93.6651    9.0155 C.ar    1  UNL1       -0.0002
     11 C          67.9547   95.1620    9.0918 C.ar    1  UNL1       -0.0000
     12 C          67.0445   95.8280   10.0807 C.ar    1  UNL1       -0.0002
     13 C          66.1922   94.9970   10.9934 C.ar    1  UNL1       -0.0010
     14 C          61.8355   89.9243   11.6695 C.3     1  UNL1        0.1011
     15 C          60.4492   90.4960   11.6307 C.3     1  UNL1        0.0265
     16 C          62.4319   85.4642   11.6255 C.ar    1  UNL1        0.0193
     17 C          61.3409   86.0832   10.8029 C.ar    1  UNL1        0.0013
     18 C          61.1421   87.5698   10.8176 C.ar    1  UNL1       -0.0026
     19 C          62.0343   88.4376   11.6549 C.ar    1  UNL1       -0.0042
     20 C          63.1253   87.8187   12.4775 C.ar    1  UNL1       -0.0026
     21 C          63.3240   86.3319   12.4628 C.ar    1  UNL1        0.0013
     22 N          62.3245   81.6553   12.7351 N.ar    1  UNL1       -0.2167
     23 N          62.1258   83.1420   12.7497 N.ar    1  UNL1       -0.1668
     24 C          62.6307   83.9775   11.6108 C.ar    1  UNL1        0.1011
     25 C          63.3343   83.3262   10.4572 C.ar    1  UNL1        0.0258
     26 C          63.5330   81.8396   10.4426 C.ar    1  UNL1        0.0638
     27 C          63.0282   81.0041   11.5815 C.ar    1  UNL1        0.2765
     28 O          63.2270   79.5174   11.5668 O.2     1  UNL1       -0.2655
     29 C          60.3450   80.7032   14.1224 C.3     1  UNL1        0.0285
     30 C          61.8197   80.8199   13.8740 C.3     1  UNL1        0.1308
     31 C          66.3646   93.2400   12.8245 C.3     1  UNL1        0.0714
     32 C          67.0163   92.3444   13.8361 C.3     1  UNL1        0.0922
     33 C          66.2488   93.0234   14.9315 C.3     1  UNL1        0.0294
     34 C          67.7838   91.6654   12.7408 C.3     1  UNL1        0.0294
     35 O          67.6679   91.4488   14.8478 O.3     1  UNL1       -0.3866
     36 H          67.3404   91.6698   15.7337 H       1  UNL1        0.2102
@<TRIPOS>BOND
     1    29    30    1
     2    30    22    1
     3    22    23   ar
     4    23    24   ar
     5    24    16    1
     6    16    17   ar
     7    17    18   ar
     8    18    19   ar
     9    19    14    1
    10    14    15    1
    11    14     1    1
    12     1     2    1
    13     2     3    1
    14     3     4    1
    15     4    31    1
    16    31    32    1
    17    32    33    1
    18    32    34    1
    19    32    35    1
    20     4     8    1
    21     8     9   ar
    22     9    10   ar
    23    10    11   ar
    24    11    12   ar
    25    12    13   ar
    26     4     5    1
    27     5     6    1
    28     6     7    2
    29    19    20   ar
    30    20    21   ar
    31    24    25   ar
    32    25    26   ar
    33    26    27   ar
    34    27    28    2
    35    27    22   ar
    36    21    16   ar
    37     6     1   am
    38    13     8   ar
    39    35    36    1
@<TRIPOS>MOLECULE
*****
 36 39 0 0 0
SMALL
GASTEIGER

@<TRIPOS>ATOM
      1 N          63.4281   90.5456   11.9548 N.am    1  UNL1       -0.2438
      2 C          64.0778   90.3571   13.2936 C.3     1  UNL1        0.1009
      3 C          65.2658   91.1897   13.6746 C.3     1  UNL1        0.0662
      4 C          65.8043   92.2108   12.7168 C.3     1  UNL1        0.1600
      5 O          65.1548   92.3992   11.3780 O.3     1  UNL1       -0.4374
      6 C          63.9666   91.5666   10.9969 C.2     1  UNL1        0.4051
      7 O          63.3171   91.7551    9.6581 O.2     1  UNL1       -0.2262
      8 C          66.7557   92.3997   13.8610 C.ar    1  UNL1        0.0138
      9 C          66.2378   92.8142   15.2064 C.ar    1  UNL1       -0.0010
     10 C          67.1892   93.0031   16.3506 C.ar    1  UNL1       -0.0002
     11 C          68.6584   92.7775   16.1494 C.ar    1  UNL1       -0.0000
     12 C          69.1763   92.3631   14.8041 C.ar    1  UNL1       -0.0002
     13 C          68.2250   92.1741   13.6599 C.ar    1  UNL1       -0.0010
     14 C          62.2400   89.7130   11.5737 C.3     1  UNL1        0.1011
     15 C          60.9602   90.3772   11.1604 C.3     1  UNL1        0.0265
     16 C          62.5153   85.2225   11.6707 C.ar    1  UNL1        0.0193
     17 C          61.6453   85.8987   10.6530 C.ar    1  UNL1        0.0013
     18 C          61.5535   87.3955   10.6207 C.ar    1  UNL1       -0.0026
     19 C          62.3318   88.2162   11.6061 C.ar    1  UNL1       -0.0042
     20 C          63.2018   87.5399   12.6238 C.ar    1  UNL1       -0.0026
     21 C          63.2936   86.0430   12.6561 C.ar    1  UNL1        0.0013
     22 N          62.1598   81.4695   12.9114 N.ar    1  UNL1       -0.2167
     23 N          62.0681   82.9664   12.8791 N.ar    1  UNL1       -0.1668
     24 C          62.6070   83.7256   11.7030 C.ar    1  UNL1        0.1011
     25 C          63.2377   82.9879   10.5593 C.ar    1  UNL1        0.0258
     26 C          63.3294   81.4911   10.5917 C.ar    1  UNL1        0.0638
     27 C          62.7904   80.7319   11.7677 C.ar    1  UNL1        0.2765
     28 O          62.8822   79.2350   11.8000 O.2     1  UNL1       -0.2655
     29 C          60.1529   80.4167   14.1818 C.3     1  UNL1        0.0285
     30 C          61.6208   80.7103   14.0875 C.3     1  UNL1        0.1308
     31 C          66.6732   93.2974   12.1564 C.3     1  UNL1        0.0714
     32 C          66.5799   93.6580   10.7034 C.3     1  UNL1        0.0922
     33 C          67.3744   92.4360   10.3491 C.3     1  UNL1        0.0294
     34 C          65.7853   94.8799   11.0575 C.3     1  UNL1        0.0294
     35 O          66.4865   94.0185    9.2502 O.3     1  UNL1       -0.3866
     36 H          66.9508   93.3512    8.7211 H       1  UNL1        0.2102
@<TRIPOS>BOND
     1    29    30    1
     2    30    22    1
     3    22    23   ar
     4    23    24   ar
     5    24    16    1
     6    16    17   ar
     7    17    18   ar
     8    18    19   ar
     9    19    14    1
    10    14    15    1
    11    14     1    1
    12     1     2    1
    13     2     3    1
    14     3     4    1
    15     4    31    1
    16    31    32    1
    17    32    33    1
    18    32    34    1
    19    32    35    1
    20     4     8    1
    21     8     9   ar
    22     9    10   ar
    23    10    11   ar
    24    11    12   ar
    25    12    13   ar
    26     4     5    1
    27     5     6    1
    28     6     7    2
    29    19    20   ar
    30    20    21   ar
    31    24    25   ar
    32    25    26   ar
    33    26    27   ar
    34    27    28    2
    35    27    22   ar
    36    21    16   ar
    37     6     1   am
    38    13     8   ar
    39    35    36    1
@<TRIPOS>MOLECULE
*****
 36 39 0 0 0
SMALL
GASTEIGER

@<TRIPOS>ATOM
      1 N          63.4976   90.5318   11.9506 N.am    1  UNL1       -0.2438
      2 C          64.2100   90.3443   13.2573 C.3     1  UNL1        0.1009
      3 C          65.3951   91.1995   13.5948 C.3     1  UNL1        0.0662
      4 C          65.8679   92.2423   12.6257 C.3     1  UNL1        0.1600
      5 O          65.1555   92.4298   11.3191 O.3     1  UNL1       -0.4374
      6 C          63.9703   91.5745   10.9815 C.2     1  UNL1        0.4051
      7 O          63.2579   91.7621    9.6749 O.2     1  UNL1       -0.2262
      8 C          66.8647   92.4409   13.7289 C.ar    1  UNL1        0.0138
      9 C          66.4631   93.1609   14.9819 C.ar    1  UNL1       -0.0010
     10 C          67.4600   93.3595   16.0851 C.ar    1  UNL1       -0.0002
     11 C          68.8583   92.8380   15.9351 C.ar    1  UNL1       -0.0000
     12 C          69.2599   92.1180   14.6820 C.ar    1  UNL1       -0.0002
     13 C          68.2631   91.9194   13.5789 C.ar    1  UNL1       -0.0010
     14 C          62.3124   89.6765   11.6131 C.3     1  UNL1        0.1011
     15 C          61.0560   90.3081   11.0911 C.3     1  UNL1        0.0265
     16 C          62.5265   85.2158   12.1663 C.ar    1  UNL1        0.0193
     17 C          63.3666   86.1186   13.0202 C.ar    1  UNL1        0.0013
     18 C          63.2953   87.6055   12.8358 C.ar    1  UNL1       -0.0026
     19 C          62.3838   88.1896   11.7975 C.ar    1  UNL1       -0.0042
     20 C          61.5436   87.2868   10.9436 C.ar    1  UNL1       -0.0026
     21 C          61.6150   85.7999   11.1281 C.ar    1  UNL1        0.0013
     22 N          63.0871   81.3638   11.3931 N.ar    1  UNL1       -0.2167
     23 N          63.0157   82.8507   11.2088 N.ar    1  UNL1       -0.1668
     24 C          62.5978   83.7288   12.3508 C.ar    1  UNL1        0.1011
     25 C          62.2513   83.1201   13.6771 C.ar    1  UNL1        0.0258
     26 C          62.3227   81.6333   13.8615 C.ar    1  UNL1        0.0638
     27 C          62.7406   80.7551   12.7195 C.ar    1  UNL1        0.2765
     28 O          62.8119   79.2681   12.9040 O.2     1  UNL1       -0.2655
     29 C          62.5160   79.5472    9.6257 C.3     1  UNL1        0.0285
     30 C          63.5050   80.4856   10.2511 C.3     1  UNL1        0.1308
     31 C          66.6868   93.3540   12.0397 C.3     1  UNL1        0.0714
     32 C          66.5835   93.6712   10.5773 C.3     1  UNL1        0.0922
     33 C          65.7604   94.8834   10.8983 C.3     1  UNL1        0.0294
     34 C          67.4066   92.4590   10.2562 C.3     1  UNL1        0.0294
     35 O          66.4802   93.9884    9.1148 O.3     1  UNL1       -0.3866
     36 H          65.9562   94.7958    8.9952 H       1  UNL1        0.2102
@<TRIPOS>BOND
     1    29    30    1
     2    30    22    1
     3    22    23   ar
     4    23    24   ar
     5    24    16    1
     6    16    17   ar
     7    17    18   ar
     8    18    19   ar
     9    19    14    1
    10    14    15    1
    11    14     1    1
    12     1     2    1
    13     2     3    1
    14     3     4    1
    15     4    31    1
    16    31    32    1
    17    32    33    1
    18    32    34    1
    19    32    35    1
    20     4     8    1
    21     8     9   ar
    22     9    10   ar
    23    10    11   ar
    24    11    12   ar
    25    12    13   ar
    26     4     5    1
    27     5     6    1
    28     6     7    2
    29    19    20   ar
    30    20    21   ar
    31    24    25   ar
    32    25    26   ar
    33    26    27   ar
    34    27    28    2
    35    27    22   ar
    36    21    16   ar
    37     6     1   am
    38    13     8   ar
    39    35    36    1
