@<TRIPOS>MOLECULE
*****
 37 42 0 0 0
SMALL
GASTEIGER

@<TRIPOS>ATOM
      1 N          62.0367   88.2159   11.4652 N.ar    1  UNL1       -0.2407
      2 C          62.2709   89.6529   11.8260 C.ar    1  UNL1        0.3369
      3 O          61.6753   90.8437   11.1353 O.2     1  UNL1       -0.2459
      4 N          63.2052   89.6900   12.9990 N.ar    1  UNL1       -0.2755
      5 C          63.5485   88.2759   13.3631 C.ar    1  UNL1        0.0804
      6 C          64.4254   87.7001   14.4352 C.ar    1  UNL1        0.0188
      7 C          64.5802   86.2134   14.5595 C.ar    1  UNL1        0.0016
      8 C          63.8580   85.3023   13.6116 C.ar    1  UNL1        0.0016
      9 C          62.9812   85.8780   12.5394 C.ar    1  UNL1        0.0192
     10 C          62.8264   87.3649   12.4151 C.ar    1  UNL1        0.0855
     11 C          61.7720   84.8278    6.9834 C.ar    1  UNL1        0.1419
     12 C          62.9473   85.0348    7.8920 C.ar    1  UNL1        0.0372
     13 C          62.8428   85.9835    9.0492 C.ar    1  UNL1        0.0094
     14 C          61.5629   86.7252    9.2976 C.ar    1  UNL1        0.0751
     15 C          61.1659   87.7174   10.3502 C.ar    1  UNL1        0.1928
     16 N          59.7452   88.1236   10.0921 N.ar    1  UNL1       -0.0587
     17 O          59.2642   87.3825    8.8799 O.2     1  UNL1       -0.3518
     18 C          60.3876   86.5182    8.3890 C.ar    1  UNL1        0.1814
     19 C          60.4922   85.5695    7.2318 C.ar    1  UNL1        0.0771
     20 C          61.9445   84.4098    4.4250 C.3     1  UNL1        0.2525
     21 O          61.8766   83.8790    5.8262 O.3     1  UNL1       -0.4713
     22 C          63.7079   90.9244   13.6870 C.3     1  UNL1        0.1373
     23 C          65.0911   91.4306   13.4034 C.ar    1  UNL1        0.0003
     24 C          66.2040   91.1536   14.3702 C.ar    1  UNL1       -0.0024
     25 C          67.5873   91.6598   14.0866 C.ar    1  UNL1       -0.0005
     26 C          67.8577   92.4428   12.8362 C.ar    1  UNL1       -0.0005
     27 C          66.7448   92.7198   11.8693 C.ar    1  UNL1        0.0218
     28 C          65.3616   92.2137   12.1529 C.ar    1  UNL1       -0.0029
     29 C          67.0152   93.5028   10.6189 C.3     1  UNL1        0.2240
     30 C          67.4096   92.1692   10.0570 C.3     1  UNL1        0.0581
     31 O          67.3679   94.0071    9.2509 O.3     1  UNL1       -0.4285
     32 C          67.1350   95.4888    9.2288 C.2     1  UNL1        0.4080
     33 O          67.3594   96.3992    8.0580 O.2     1  UNL1       -0.2260
     34 N          66.6383   95.9002   10.5831 N.am    1  UNL1       -0.2179
     35 C          66.5642   94.6728   11.4421 C.2     1  UNL1        0.2711
     36 O          66.1176   94.6239   12.8733 O.2     1  UNL1       -0.2705
     37 H          66.4023   96.8151   10.8596 H       1  UNL1        0.1610
@<TRIPOS>BOND
     1    20    21    1
     2    21    11    1
     3    11    12   ar
     4    12    13   ar
     5    13    14   ar
     6    14    15   ar
     7    15     1    1
     8     1     2   ar
     9     2     3    2
    10     2     4   ar
    11     4    22    1
    12    22    23    1
    13    23    24   ar
    14    24    25   ar
    15    25    26   ar
    16    26    27   ar
    17    27    29    1
    18    29    30    1
    19    29    31    1
    20    31    32    1
    21    32    33    2
    22    32    34   am
    23    34    35   am
    24    35    36    2
    25    27    28   ar
    26     4     5   ar
    27     5     6   ar
    28     6     7   ar
    29     7     8   ar
    30     8     9   ar
    31     9    10   ar
    32    15    16   ar
    33    16    17   ar
    34    17    18   ar
    35    18    19   ar
    36    19    11   ar
    37    18    14   ar
    38    10     1   ar
    39    28    23   ar
    40    10     5   ar
    41    35    29    1
    42    34    37    1
@<TRIPOS>MOLECULE
*****
 37 42 0 0 0
SMALL
GASTEIGER

@<TRIPOS>ATOM
      1 N          62.6240   87.1669   11.5788 N.ar    1  UNL1       -0.2407
      2 C          63.2779   87.9320   12.6910 C.ar    1  UNL1        0.3369
      3 O          64.2335   87.3728   13.7029 O.2     1  UNL1       -0.2459
      4 N          62.8084   89.3546   12.6135 N.ar    1  UNL1       -0.2755
      5 C          61.8643   89.4686   11.4534 C.ar    1  UNL1        0.0804
      6 C          61.0937   90.6289   10.8968 C.ar    1  UNL1        0.0188
      7 C          60.2091   90.4372    9.7007 C.ar    1  UNL1        0.0016
      8 C          60.0951   89.0851    9.0611 C.ar    1  UNL1        0.0016
      9 C          60.8658   87.9248    9.6178 C.ar    1  UNL1        0.0192
     10 C          61.7503   88.1166   10.8140 C.ar    1  UNL1        0.0855
     11 C          62.6609   81.9863   13.7688 C.ar    1  UNL1        0.1419
     12 C          62.4057   83.2733   14.4957 C.ar    1  UNL1        0.0372
     13 C          62.4344   84.5744   13.7498 C.ar    1  UNL1        0.0094
     14 C          62.7182   84.5884   12.2770 C.ar    1  UNL1        0.0751
     15 C          62.8109   85.7082   11.2833 C.ar    1  UNL1        0.1928
     16 N          63.1233   85.1132    9.9422 N.ar    1  UNL1       -0.0587
     17 O          63.2237   83.6257   10.1071 O.2     1  UNL1       -0.3518
     18 C          62.9733   83.3014   11.5501 C.ar    1  UNL1        0.1814
     19 C          62.9446   82.0003   12.2960 C.ar    1  UNL1        0.0771
     20 C          62.3310   79.4093   13.7859 C.3     1  UNL1        0.2525
     21 O          62.6322   80.6852   14.5148 O.3     1  UNL1       -0.4713
     22 C          63.2121   90.4676   13.5344 C.3     1  UNL1        0.1373
     23 C          64.5897   91.0542   13.4432 C.ar    1  UNL1        0.0003
     24 C          65.6179   90.7188   14.4826 C.ar    1  UNL1       -0.0024
     25 C          66.9954   91.3053   14.3914 C.ar    1  UNL1       -0.0005
     26 C          67.3448   92.2272   13.2609 C.ar    1  UNL1       -0.0005
     27 C          66.3166   92.5626   12.2216 C.ar    1  UNL1        0.0218
     28 C          64.9390   91.9761   12.3127 C.ar    1  UNL1       -0.0029
     29 C          66.6659   93.4844   11.0911 C.3     1  UNL1        0.2240
     30 C          66.9731   92.2130   10.3571 C.3     1  UNL1        0.0581
     31 O          67.0794   94.1406    9.8071 O.3     1  UNL1       -0.4285
     32 C          66.9547   95.6249    9.9839 C.2     1  UNL1        0.4080
     33 O          67.2659   96.6653    8.9492 O.2     1  UNL1       -0.2260
     34 N          66.4642   95.8861   11.3772 N.am    1  UNL1       -0.2179
     35 C          66.2857   94.5633   12.0614 C.2     1  UNL1        0.2711
     36 O          65.8104   94.3557   13.4689 O.2     1  UNL1       -0.2705
     37 H          66.2899   96.7706   11.7730 H       1  UNL1        0.1610
@<TRIPOS>BOND
     1    20    21    1
     2    21    11    1
     3    11    12   ar
     4    12    13   ar
     5    13    14   ar
     6    14    15   ar
     7    15     1    1
     8     1     2   ar
     9     2     3    2
    10     2     4   ar
    11     4    22    1
    12    22    23    1
    13    23    24   ar
    14    24    25   ar
    15    25    26   ar
    16    26    27   ar
    17    27    29    1
    18    29    30    1
    19    29    31    1
    20    31    32    1
    21    32    33    2
    22    32    34   am
    23    34    35   am
    24    35    36    2
    25    27    28   ar
    26     4     5   ar
    27     5     6   ar
    28     6     7   ar
    29     7     8   ar
    30     8     9   ar
    31     9    10   ar
    32    15    16   ar
    33    16    17   ar
    34    17    18   ar
    35    18    19   ar
    36    19    11   ar
    37    18    14   ar
    38    10     1   ar
    39    28    23   ar
    40    10     5   ar
    41    35    29    1
    42    34    37    1
@<TRIPOS>MOLECULE
*****
 37 42 0 0 0
SMALL
GASTEIGER

@<TRIPOS>ATOM
      1 N          62.9992   84.8420   11.7204 N.ar    1  UNL1       -0.2407
      2 C          63.4138   85.8708   12.7302 C.ar    1  UNL1        0.3369
      3 O          63.5383   87.3456   12.4864 O.2     1  UNL1       -0.2459
      4 N          63.6821   85.1657   14.0268 N.ar    1  UNL1       -0.2755
      5 C          63.4333   83.7013   13.8183 C.ar    1  UNL1        0.0804
      6 C          63.5365   82.5241   14.7422 C.ar    1  UNL1        0.0188
      7 C          63.2177   81.1469   14.2407 C.ar    1  UNL1        0.0016
      8 C          62.7957   80.9468   12.8153 C.ar    1  UNL1        0.0016
      9 C          62.6925   82.1239   11.8913 C.ar    1  UNL1        0.0192
     10 C          63.0113   83.5012   12.3929 C.ar    1  UNL1        0.0855
     11 C          59.7039   87.8283    8.2767 C.ar    1  UNL1        0.1419
     12 C          59.7354   87.8882    9.7751 C.ar    1  UNL1        0.0372
     13 C          60.6843   87.0146   10.5409 C.ar    1  UNL1        0.0094
     14 C          61.6018   86.0812    9.8082 C.ar    1  UNL1        0.0751
     15 C          62.6363   85.1075   10.2894 C.ar    1  UNL1        0.1928
     16 N          63.2443   84.4458    9.0883 N.ar    1  UNL1       -0.0587
     17 O          62.5855   85.0105    7.8648 O.2     1  UNL1       -0.3518
     18 C          61.5703   86.0213    8.3098 C.ar    1  UNL1        0.1814
     19 C          60.6214   86.8949    7.5440 C.ar    1  UNL1        0.0771
     20 C          59.2691   89.5872    6.4146 C.3     1  UNL1        0.2525
     21 O          58.7550   88.7019    7.5109 O.3     1  UNL1       -0.4713
     22 C          64.1219   85.8118   15.3071 C.3     1  UNL1        0.1373
     23 C          63.9010   87.2800   15.5208 C.ar    1  UNL1        0.0003
     24 C          63.0958   87.7543   16.6942 C.ar    1  UNL1       -0.0024
     25 C          62.8749   89.2225   16.9079 C.ar    1  UNL1       -0.0005
     26 C          63.4590   90.2164   15.9483 C.ar    1  UNL1       -0.0005
     27 C          64.2642   89.7421   14.7750 C.ar    1  UNL1        0.0218
     28 C          64.4851   88.2739   14.5612 C.ar    1  UNL1       -0.0029
     29 C          64.8484   90.7359   13.8153 C.3     1  UNL1        0.2240
     30 C          66.0440   90.6688   14.7186 C.3     1  UNL1        0.0581
     31 O          65.6825   91.7157   13.0445 O.3     1  UNL1       -0.4285
     32 C          64.8803   92.1807   11.8653 C.2     1  UNL1        0.4080
     33 O          65.3292   93.1652   10.8266 O.2     1  UNL1       -0.2260
     34 N          63.5503   91.4882   11.9075 N.am    1  UNL1       -0.2179
     35 C          63.5306   90.5953   13.1126 C.2     1  UNL1        0.2711
     36 O          62.3929   89.7162   13.5401 O.2     1  UNL1       -0.2705
     37 H          62.8188   91.6001   11.2582 H       1  UNL1        0.1610
@<TRIPOS>BOND
     1    20    21    1
     2    21    11    1
     3    11    12   ar
     4    12    13   ar
     5    13    14   ar
     6    14    15   ar
     7    15     1    1
     8     1     2   ar
     9     2     3    2
    10     2     4   ar
    11     4    22    1
    12    22    23    1
    13    23    24   ar
    14    24    25   ar
    15    25    26   ar
    16    26    27   ar
    17    27    29    1
    18    29    30    1
    19    29    31    1
    20    31    32    1
    21    32    33    2
    22    32    34   am
    23    34    35   am
    24    35    36    2
    25    27    28   ar
    26     4     5   ar
    27     5     6   ar
    28     6     7   ar
    29     7     8   ar
    30     8     9   ar
    31     9    10   ar
    32    15    16   ar
    33    16    17   ar
    34    17    18   ar
    35    18    19   ar
    36    19    11   ar
    37    18    14   ar
    38    10     1   ar
    39    28    23   ar
    40    10     5   ar
    41    35    29    1
    42    34    37    1
@<TRIPOS>MOLECULE
*****
 37 42 0 0 0
SMALL
GASTEIGER

@<TRIPOS>ATOM
      1 N          62.3069   90.2280   11.6896 N.ar    1  UNL1       -0.2407
      2 C          62.2121   89.7542   13.1097 C.ar    1  UNL1        0.3369
      3 O          61.1286   88.8873   13.6794 O.2     1  UNL1       -0.2459
      4 N          63.3910   90.2994   13.8599 N.ar    1  UNL1       -0.2755
      5 C          64.2145   91.1103   12.9036 C.ar    1  UNL1        0.0804
      6 C          65.4878   91.8831   13.0809 C.ar    1  UNL1        0.0188
      7 C          66.0911   92.6118   11.9169 C.ar    1  UNL1        0.0016
      8 C          65.4211   92.5677   10.5755 C.ar    1  UNL1        0.0016
      9 C          64.1478   91.7949   10.3982 C.ar    1  UNL1        0.0192
     10 C          63.5444   91.0662   11.5624 C.ar    1  UNL1        0.0855
     11 C          60.6710   86.3769    7.9308 C.ar    1  UNL1        0.1419
     12 C          61.7900   86.2544    8.9221 C.ar    1  UNL1        0.0372
     13 C          62.0910   87.3879    9.8573 C.ar    1  UNL1        0.0094
     14 C          61.2730   88.6440    9.8011 C.ar    1  UNL1        0.0751
     15 C          61.3349   89.9182   10.5900 C.ar    1  UNL1        0.1928
     16 N          60.2541   90.8283   10.0863 N.ar    1  UNL1       -0.0587
     17 O          59.5242   90.1164    8.9860 O.2     1  UNL1       -0.3518
     18 C          60.1540   88.7664    8.8098 C.ar    1  UNL1        0.1814
     19 C          59.8530   87.6329    7.8746 C.ar    1  UNL1        0.0771
     20 C          61.4877   84.5455    6.2788 C.3     1  UNL1        0.2525
     21 O          60.3700   85.2433    6.9957 O.3     1  UNL1       -0.4713
     22 C          63.6934   90.0735   15.3116 C.3     1  UNL1        0.1373
     23 C          63.5598   88.7004   15.9007 C.ar    1  UNL1        0.0003
     24 C          63.0168   88.5294   17.2885 C.ar    1  UNL1       -0.0024
     25 C          62.8831   87.1564   17.8776 C.ar    1  UNL1       -0.0005
     26 C          63.2924   85.9545   17.0790 C.ar    1  UNL1       -0.0005
     27 C          63.8354   86.1255   15.6912 C.ar    1  UNL1        0.0218
     28 C          63.9691   87.4985   15.1021 C.ar    1  UNL1       -0.0029
     29 C          64.2448   84.9237   14.8925 C.3     1  UNL1        0.2240
     30 C          65.5861   85.5943   14.8652 C.3     1  UNL1        0.0581
     31 O          64.9345   83.8620   14.0881 O.3     1  UNL1       -0.4285
     32 C          63.9338   82.7864   13.7852 C.2     1  UNL1        0.4080
     33 O          64.1953   81.5339   13.0026 O.2     1  UNL1       -0.2260
     34 N          62.6255   83.1834   14.4025 N.am    1  UNL1       -0.2179
     35 C          62.8177   84.5043   15.0868 C.2     1  UNL1        0.2711
     36 O          61.7674   85.2712   15.8342 O.2     1  UNL1       -0.2705
     37 H          61.7878   82.6676   14.3650 H       1  UNL1        0.1610
@<TRIPOS>BOND
     1    20    21    1
     2    21    11    1
     3    11    12   ar
     4    12    13   ar
     5    13    14   ar
     6    14    15   ar
     7    15     1    1
     8     1     2   ar
     9     2     3    2
    10     2     4   ar
    11     4    22    1
    12    22    23    1
    13    23    24   ar
    14    24    25   ar
    15    25    26   ar
    16    26    27   ar
    17    27    29    1
    18    29    30    1
    19    29    31    1
    20    31    32    1
    21    32    33    2
    22    32    34   am
    23    34    35   am
    24    35    36    2
    25    27    28   ar
    26     4     5   ar
    27     5     6   ar
    28     6     7   ar
    29     7     8   ar
    30     8     9   ar
    31     9    10   ar
    32    15    16   ar
    33    16    17   ar
    34    17    18   ar
    35    18    19   ar
    36    19    11   ar
    37    18    14   ar
    38    10     1   ar
    39    28    23   ar
    40    10     5   ar
    41    35    29    1
    42    34    37    1
@<TRIPOS>MOLECULE
*****
 37 42 0 0 0
SMALL
GASTEIGER

@<TRIPOS>ATOM
      1 N          62.7806   87.5775   11.7545 N.ar    1  UNL1       -0.2407
      2 C          62.9564   89.0178   12.1349 C.ar    1  UNL1        0.3369
      3 O          62.5305   90.2032   11.3204 O.2     1  UNL1       -0.2459
      4 N          63.6329   89.0646   13.4730 N.ar    1  UNL1       -0.2755
      5 C          63.8752   87.6532   13.9195 C.ar    1  UNL1        0.0804
      6 C          64.5074   87.0862   15.1559 C.ar    1  UNL1        0.0188
      7 C          64.6129   85.6002   15.3304 C.ar    1  UNL1        0.0016
      8 C          64.0862   84.6811   14.2683 C.ar    1  UNL1        0.0016
      9 C          63.4540   85.2481   13.0319 C.ar    1  UNL1        0.0192
     10 C          63.3485   86.7342   12.8575 C.ar    1  UNL1        0.0855
     11 C          59.4065   88.8703    7.4440 C.ar    1  UNL1        0.1419
     12 C          59.8024   89.7639    8.5819 C.ar    1  UNL1        0.0372
     13 C          60.7179   89.2520    9.6541 C.ar    1  UNL1        0.0094
     14 C          61.2377   87.8465    9.5885 C.ar    1  UNL1        0.0751
     15 C          62.1481   87.0697   10.4927 C.ar    1  UNL1        0.1928
     16 N          62.3150   85.6961    9.9138 N.ar    1  UNL1       -0.0587
     17 O          61.5077   85.6238    8.6516 O.2     1  UNL1       -0.3518
     18 C          60.8418   86.9529    8.4506 C.ar    1  UNL1        0.1814
     19 C          59.9263   87.4648    7.3784 C.ar    1  UNL1        0.0771
     20 C          58.8715   90.5963    5.5773 C.3     1  UNL1        0.2525
     21 O          58.4909   89.3823    6.3718 O.3     1  UNL1       -0.4713
     22 C          64.0022   90.3050   14.2312 C.3     1  UNL1        0.1373
     23 C          65.2462   91.0618   13.8711 C.ar    1  UNL1        0.0003
     24 C          66.4803   90.9198   14.7119 C.ar    1  UNL1       -0.0024
     25 C          67.7243   91.6766   14.3518 C.ar    1  UNL1       -0.0005
     26 C          67.7344   92.5752   13.1509 C.ar    1  UNL1       -0.0005
     27 C          66.5003   92.7172   12.3100 C.ar    1  UNL1        0.0218
     28 C          65.2563   91.9605   12.6701 C.ar    1  UNL1       -0.0029
     29 C          66.5103   93.6158   11.1091 C.3     1  UNL1        0.2240
     30 C          66.8324   92.3547   10.3638 C.3     1  UNL1        0.0581
     31 O          66.5876   94.2509    9.7524 O.3     1  UNL1       -0.4285
     32 C          66.3111   95.7168    9.9102 C.2     1  UNL1        0.4080
     33 O          66.2870   96.7332    8.8075 O.2     1  UNL1       -0.2260
     34 N          66.0629   95.9876   11.3646 N.am    1  UNL1       -0.2179
     35 C          66.1860   94.6892   12.1055 C.2     1  UNL1        0.2711
     36 O          66.0150   94.4977   13.5834 O.2     1  UNL1       -0.2705
     37 H          65.8557   96.8638   11.7629 H       1  UNL1        0.1610
@<TRIPOS>BOND
     1    20    21    1
     2    21    11    1
     3    11    12   ar
     4    12    13   ar
     5    13    14   ar
     6    14    15   ar
     7    15     1    1
     8     1     2   ar
     9     2     3    2
    10     2     4   ar
    11     4    22    1
    12    22    23    1
    13    23    24   ar
    14    24    25   ar
    15    25    26   ar
    16    26    27   ar
    17    27    29    1
    18    29    30    1
    19    29    31    1
    20    31    32    1
    21    32    33    2
    22    32    34   am
    23    34    35   am
    24    35    36    2
    25    27    28   ar
    26     4     5   ar
    27     5     6   ar
    28     6     7   ar
    29     7     8   ar
    30     8     9   ar
    31     9    10   ar
    32    15    16   ar
    33    16    17   ar
    34    17    18   ar
    35    18    19   ar
    36    19    11   ar
    37    18    14   ar
    38    10     1   ar
    39    28    23   ar
    40    10     5   ar
    41    35    29    1
    42    34    37    1
@<TRIPOS>MOLECULE
*****
 37 42 0 0 0
SMALL
GASTEIGER

@<TRIPOS>ATOM
      1 N          62.3280   86.5060   10.5528 N.ar    1  UNL1       -0.2407
      2 C          62.6796   87.5398   11.5813 C.ar    1  UNL1        0.3369
      3 O          63.6082   87.3472   12.7434 O.2     1  UNL1       -0.2459
      4 N          61.9393   88.8000   11.2436 N.ar    1  UNL1       -0.2755
      5 C          61.1304   88.5452   10.0064 C.ar    1  UNL1        0.0804
      6 C          60.2060   89.4209    9.2135 C.ar    1  UNL1        0.0188
      7 C          59.5219   88.8789    7.9936 C.ar    1  UNL1        0.0016
      8 C          59.7621   87.4611    7.5666 C.ar    1  UNL1        0.0016
      9 C          60.6865   86.5854    8.3595 C.ar    1  UNL1        0.0192
     10 C          61.3706   87.1275    9.5795 C.ar    1  UNL1        0.0855
     11 C          63.0451   81.7581   13.4817 C.ar    1  UNL1        0.1419
     12 C          62.4301   83.0366   13.9686 C.ar    1  UNL1        0.0372
     13 C          62.3174   84.2137   13.0458 C.ar    1  UNL1        0.0094
     14 C          62.8196   84.1124   11.6361 C.ar    1  UNL1        0.0751
     15 C          62.8435   85.0982   10.5058 C.ar    1  UNL1        0.1928
     16 N          63.4732   84.4289    9.3202 N.ar    1  UNL1       -0.0587
     17 O          63.8386   83.0295    9.7178 O.2     1  UNL1       -0.3518
     18 C          63.4346   82.8339   11.1491 C.ar    1  UNL1        0.1814
     19 C          63.5474   81.6567   12.0720 C.ar    1  UNL1        0.0771
     20 C          62.2967   79.3722   14.1870 C.3     1  UNL1        0.2525
     21 O          63.1579   80.5809   14.4045 O.3     1  UNL1       -0.4713
     22 C          61.9979   90.0888   12.0088 C.3     1  UNL1        0.1373
     23 C          63.2260   90.9473   11.9393 C.ar    1  UNL1        0.0003
     24 C          63.5614   91.6750   10.6712 C.ar    1  UNL1       -0.0024
     25 C          64.7895   92.5335   10.6016 C.ar    1  UNL1       -0.0005
     26 C          65.6822   92.6642   11.7999 C.ar    1  UNL1       -0.0005
     27 C          65.3468   91.9364   13.0679 C.ar    1  UNL1        0.0218
     28 C          64.1187   91.0780   13.1376 C.ar    1  UNL1       -0.0029
     29 C          66.2394   92.0671   14.2663 C.3     1  UNL1        0.2240
     30 C          64.9475   92.1232   15.0263 C.3     1  UNL1        0.0581
     31 O          66.8619   92.2095   15.6236 O.3     1  UNL1       -0.4285
     32 C          68.3521   92.2141   15.4519 C.2     1  UNL1        0.4080
     33 O          69.3658   92.3367   16.5506 O.2     1  UNL1       -0.2260
     34 N          68.6505   92.0746   13.9884 N.am    1  UNL1       -0.2179
     35 C          67.3447   91.9837   13.2558 C.2     1  UNL1        0.2711
     36 O          67.1743   91.8355   11.7729 O.2     1  UNL1       -0.2705
     37 H          69.5461   92.0474   13.5805 H       1  UNL1        0.1610
@<TRIPOS>BOND
     1    20    21    1
     2    21    11    1
     3    11    12   ar
     4    12    13   ar
     5    13    14   ar
     6    14    15   ar
     7    15     1    1
     8     1     2   ar
     9     2     3    2
    10     2     4   ar
    11     4    22    1
    12    22    23    1
    13    23    24   ar
    14    24    25   ar
    15    25    26   ar
    16    26    27   ar
    17    27    29    1
    18    29    30    1
    19    29    31    1
    20    31    32    1
    21    32    33    2
    22    32    34   am
    23    34    35   am
    24    35    36    2
    25    27    28   ar
    26     4     5   ar
    27     5     6   ar
    28     6     7   ar
    29     7     8   ar
    30     8     9   ar
    31     9    10   ar
    32    15    16   ar
    33    16    17   ar
    34    17    18   ar
    35    18    19   ar
    36    19    11   ar
    37    18    14   ar
    38    10     1   ar
    39    28    23   ar
    40    10     5   ar
    41    35    29    1
    42    34    37    1
@<TRIPOS>MOLECULE
*****
 37 42 0 0 0
SMALL
GASTEIGER

@<TRIPOS>ATOM
      1 N          63.4415   87.0904   13.0196 N.ar    1  UNL1       -0.2407
      2 C          63.8018   88.3940   13.6684 C.ar    1  UNL1        0.3369
      3 O          64.5234   88.5598   14.9729 O.2     1  UNL1       -0.2459
      4 N          63.3139   89.5026   12.7835 N.ar    1  UNL1       -0.2755
      5 C          62.6521   88.8842   11.5878 C.ar    1  UNL1        0.0804
      6 C          61.9878   89.4860   10.3851 C.ar    1  UNL1        0.0188
      7 C          61.4024   88.5970    9.3283 C.ar    1  UNL1        0.0016
      8 C          61.4812   87.1061    9.4742 C.ar    1  UNL1        0.0016
      9 C          62.1455   86.5044   10.6769 C.ar    1  UNL1        0.0192
     10 C          62.7309   87.3934   11.7338 C.ar    1  UNL1        0.0855
     11 C          63.1251   81.5642   12.0208 C.ar    1  UNL1        0.1419
     12 C          62.6645   82.6732   11.1221 C.ar    1  UNL1        0.0372
     13 C          62.8270   84.1017   11.5497 C.ar    1  UNL1        0.0094
     14 C          63.4503   84.4213   12.8761 C.ar    1  UNL1        0.0751
     15 C          63.7394   85.7238   13.5615 C.ar    1  UNL1        0.1928
     16 N          64.3788   85.4198   14.8839 N.ar    1  UNL1       -0.0587
     17 O          64.4849   83.9294   15.0158 O.2     1  UNL1       -0.3518
     18 C          63.9110   83.3123   13.7749 C.ar    1  UNL1        0.1814
     19 C          63.7484   81.8838   13.3472 C.ar    1  UNL1        0.0771
     20 C          62.8765   79.7944   10.1351 C.3     1  UNL1        0.2525
     21 O          62.9625   80.1357   11.5932 O.3     1  UNL1       -0.4713
     22 C          63.4619   90.9716   13.0479 C.3     1  UNL1        0.1373
     23 C          64.8155   91.6141   12.9754 C.ar    1  UNL1        0.0003
     24 C          65.9160   91.1487   13.8821 C.ar    1  UNL1       -0.0024
     25 C          67.2696   91.7911   13.8097 C.ar    1  UNL1       -0.0005
     26 C          67.5226   92.8989   12.8306 C.ar    1  UNL1       -0.0005
     27 C          66.4220   93.3644   11.9239 C.ar    1  UNL1        0.0218
     28 C          65.0685   92.7220   11.9963 C.ar    1  UNL1       -0.0029
     29 C          66.6749   94.4722   10.9448 C.3     1  UNL1        0.2240
     30 C          66.1335   95.3477   12.0356 C.3     1  UNL1        0.0581
     31 O          66.8146   95.7630   10.1936 O.3     1  UNL1       -0.4285
     32 C          67.3896   95.4537    8.8431 C.2     1  UNL1        0.4080
     33 O          67.6952   96.4511    7.7655 O.2     1  UNL1       -0.2260
     34 N          67.6051   93.9715    8.7597 N.am    1  UNL1       -0.2179
     35 C          67.1635   93.3650   10.0585 C.2     1  UNL1        0.2711
     36 O          67.2033   91.9072   10.4095 O.2     1  UNL1       -0.2705
     37 H          67.9721   93.4827    7.9879 H       1  UNL1        0.1610
@<TRIPOS>BOND
     1    20    21    1
     2    21    11    1
     3    11    12   ar
     4    12    13   ar
     5    13    14   ar
     6    14    15   ar
     7    15     1    1
     8     1     2   ar
     9     2     3    2
    10     2     4   ar
    11     4    22    1
    12    22    23    1
    13    23    24   ar
    14    24    25   ar
    15    25    26   ar
    16    26    27   ar
    17    27    29    1
    18    29    30    1
    19    29    31    1
    20    31    32    1
    21    32    33    2
    22    32    34   am
    23    34    35   am
    24    35    36    2
    25    27    28   ar
    26     4     5   ar
    27     5     6   ar
    28     6     7   ar
    29     7     8   ar
    30     8     9   ar
    31     9    10   ar
    32    15    16   ar
    33    16    17   ar
    34    17    18   ar
    35    18    19   ar
    36    19    11   ar
    37    18    14   ar
    38    10     1   ar
    39    28    23   ar
    40    10     5   ar
    41    35    29    1
    42    34    37    1
@<TRIPOS>MOLECULE
*****
 37 42 0 0 0
SMALL
GASTEIGER

@<TRIPOS>ATOM
      1 N          63.1926   86.9240   12.6836 N.ar    1  UNL1       -0.2407
      2 C          63.5902   88.2513   13.2582 C.ar    1  UNL1        0.3369
      3 O          64.4085   88.4663   14.4968 O.2     1  UNL1       -0.2459
      4 N          63.0259   89.3259   12.3767 N.ar    1  UNL1       -0.2755
      5 C          62.2795   88.6627   11.2573 C.ar    1  UNL1        0.0804
      6 C          61.5194   89.2187   10.0898 C.ar    1  UNL1        0.0188
      7 C          60.8622   88.2904    9.1119 C.ar    1  UNL1        0.0016
      8 C          60.9652   86.8059    9.3015 C.ar    1  UNL1        0.0016
      9 C          61.7253   86.2499   10.4690 C.ar    1  UNL1        0.0192
     10 C          62.3825   87.1783   11.4469 C.ar    1  UNL1        0.0855
     11 C          63.2224   81.3840   11.7122 C.ar    1  UNL1        0.1419
     12 C          62.7379   82.4614   10.7878 C.ar    1  UNL1        0.0372
     13 C          62.8040   83.8988   11.2114 C.ar    1  UNL1        0.0094
     14 C          63.3545   84.2588   12.5594 C.ar    1  UNL1        0.0751
     15 C          63.5434   85.5787   13.2466 C.ar    1  UNL1        0.1928
     16 N          64.1446   85.3171   14.5958 N.ar    1  UNL1       -0.0587
     17 O          64.3273   83.8355   14.7424 O.2     1  UNL1       -0.3518
     18 C          63.8390   83.1815   13.4838 C.ar    1  UNL1        0.1814
     19 C          63.7730   81.7441   13.0602 C.ar    1  UNL1        0.0771
     20 C          62.8087   79.5975    9.8718 C.3     1  UNL1        0.2525
     21 O          63.1564   79.9466   11.2885 O.3     1  UNL1       -0.4713
     22 C          63.1809   90.8040   12.5791 C.3     1  UNL1        0.1373
     23 C          64.4474   91.4897   12.1600 C.ar    1  UNL1        0.0003
     24 C          64.5907   92.0099   10.7604 C.ar    1  UNL1       -0.0024
     25 C          65.8572   92.6957   10.3411 C.ar    1  UNL1       -0.0005
     26 C          66.9804   92.8612   11.3214 C.ar    1  UNL1       -0.0005
     27 C          66.8371   92.3410   12.7210 C.ar    1  UNL1        0.0218
     28 C          65.5706   91.6553   13.1403 C.ar    1  UNL1       -0.0029
     29 C          67.9602   92.5066   13.7014 C.3     1  UNL1        0.2240
     30 C          68.6669   91.5214   12.8183 C.3     1  UNL1        0.0581
     31 O          69.2310   92.4661   14.4972 O.3     1  UNL1       -0.4285
     32 C          69.0750   93.3918   15.6672 C.2     1  UNL1        0.4080
     33 O          70.1053   93.6581   16.7242 O.2     1  UNL1       -0.2260
     34 N          67.7076   94.0043   15.5945 N.am    1  UNL1       -0.2179
     35 C          67.0187   93.4572   14.3795 C.2     1  UNL1        0.2711
     36 O          65.6317   93.8004   13.9229 O.2     1  UNL1       -0.2705
     37 H          67.3288   94.6517   16.2322 H       1  UNL1        0.1610
@<TRIPOS>BOND
     1    20    21    1
     2    21    11    1
     3    11    12   ar
     4    12    13   ar
     5    13    14   ar
     6    14    15   ar
     7    15     1    1
     8     1     2   ar
     9     2     3    2
    10     2     4   ar
    11     4    22    1
    12    22    23    1
    13    23    24   ar
    14    24    25   ar
    15    25    26   ar
    16    26    27   ar
    17    27    29    1
    18    29    30    1
    19    29    31    1
    20    31    32    1
    21    32    33    2
    22    32    34   am
    23    34    35   am
    24    35    36    2
    25    27    28   ar
    26     4     5   ar
    27     5     6   ar
    28     6     7   ar
    29     7     8   ar
    30     8     9   ar
    31     9    10   ar
    32    15    16   ar
    33    16    17   ar
    34    17    18   ar
    35    18    19   ar
    36    19    11   ar
    37    18    14   ar
    38    10     1   ar
    39    28    23   ar
    40    10     5   ar
    41    35    29    1
    42    34    37    1
@<TRIPOS>MOLECULE
*****
 37 42 0 0 0
SMALL
GASTEIGER

@<TRIPOS>ATOM
      1 N          61.8169   87.7496   11.0946 N.ar    1  UNL1       -0.2407
      2 C          62.0070   89.1868   11.4800 C.ar    1  UNL1        0.3369
      3 O          61.3950   90.3720   10.7940 O.2     1  UNL1       -0.2459
      4 N          62.9168   89.2306   12.6719 N.ar    1  UNL1       -0.2755
      5 C          63.2888   87.8206   13.0232 C.ar    1  UNL1        0.0804
      6 C          64.1588   87.2518   14.1047 C.ar    1  UNL1        0.0188
      7 C          64.3490   85.7678   14.2114 C.ar    1  UNL1        0.0016
      8 C          63.6692   84.8524   13.2366 C.ar    1  UNL1        0.0016
      9 C          62.7993   85.4212   12.1551 C.ar    1  UNL1        0.0192
     10 C          62.6091   86.9053   12.0484 C.ar    1  UNL1        0.0855
     11 C          61.7872   84.5834    6.4459 C.ar    1  UNL1        0.1419
     12 C          62.9472   84.8304    7.3642 C.ar    1  UNL1        0.0372
     13 C          62.7770   85.7088    8.5681 C.ar    1  UNL1        0.0094
     14 C          61.4467   86.3401    8.8539 C.ar    1  UNL1        0.0751
     15 C          60.9812   87.2454    9.9556 C.ar    1  UNL1        0.1928
     16 N          59.5335   87.5579    9.7182 N.ar    1  UNL1       -0.0587
     17 O          59.1041   86.8458    8.4698 O.2     1  UNL1       -0.3518
     18 C          60.2866   86.0931    7.9356 C.ar    1  UNL1        0.1814
     19 C          60.4569   85.2148    6.7317 C.ar    1  UNL1        0.0771
     20 C          61.5275   84.1935    3.8905 C.3     1  UNL1        0.2525
     21 O          61.9574   83.7051    5.2420 O.3     1  UNL1       -0.4713
     22 C          63.3741   90.4673   13.3869 C.3     1  UNL1        0.1373
     23 C          64.5125   91.2742   12.8365 C.ar    1  UNL1        0.0003
     24 C          64.4362   91.8261   11.4438 C.ar    1  UNL1       -0.0024
     25 C          65.5745   92.6330   10.8934 C.ar    1  UNL1       -0.0005
     26 C          66.7893   92.8880   11.7356 C.ar    1  UNL1       -0.0005
     27 C          66.8656   92.3362   13.1283 C.ar    1  UNL1        0.0218
     28 C          65.7273   91.5293   13.6787 C.ar    1  UNL1       -0.0029
     29 C          68.0803   92.5912   13.9706 C.3     1  UNL1        0.2240
     30 C          68.7415   91.6283   13.0295 C.3     1  UNL1        0.0581
     31 O          69.4332   92.6449   14.6161 O.3     1  UNL1       -0.4285
     32 C          69.3543   93.5877   15.7802 C.2     1  UNL1        0.4080
     33 O          70.4794   93.9397   16.7075 O.2     1  UNL1       -0.2260
     34 N          67.9525   94.1166   15.8540 N.am    1  UNL1       -0.2179
     35 C          67.1652   93.5007   14.7356 C.2     1  UNL1        0.2711
     36 O          65.7170   93.7506   14.4350 O.2     1  UNL1       -0.2705
     37 H          67.6095   94.7558   16.5196 H       1  UNL1        0.1610
@<TRIPOS>BOND
     1    20    21    1
     2    21    11    1
     3    11    12   ar
     4    12    13   ar
     5    13    14   ar
     6    14    15   ar
     7    15     1    1
     8     1     2   ar
     9     2     3    2
    10     2     4   ar
    11     4    22    1
    12    22    23    1
    13    23    24   ar
    14    24    25   ar
    15    25    26   ar
    16    26    27   ar
    17    27    29    1
    18    29    30    1
    19    29    31    1
    20    31    32    1
    21    32    33    2
    22    32    34   am
    23    34    35   am
    24    35    36    2
    25    27    28   ar
    26     4     5   ar
    27     5     6   ar
    28     6     7   ar
    29     7     8   ar
    30     8     9   ar
    31     9    10   ar
    32    15    16   ar
    33    16    17   ar
    34    17    18   ar
    35    18    19   ar
    36    19    11   ar
    37    18    14   ar
    38    10     1   ar
    39    28    23   ar
    40    10     5   ar
    41    35    29    1
    42    34    37    1
