@<TRIPOS>MOLECULE
*****
 37 41 0 0 0
SMALL
GASTEIGER

@<TRIPOS>ATOM
      1 O          62.6935   85.3120   13.8537 O.2     1  UNL1       -0.2744
      2 C          63.2050   84.7318   15.1388 C.2     1  UNL1        0.2320
      3 N          63.6800   85.6390   16.2348 N.am    1  UNL1       -0.2639
      4 H          64.0157   85.2582   17.0783 H       1  UNL1        0.1567
      5 C          63.6434   87.1265   16.0458 C.ar    1  UNL1        0.1655
      6 N          64.2787   87.8883   14.9205 N.ar    1  UNL1       -0.2239
      7 C          63.9930   89.3461   15.1280 C.ar    1  UNL1        0.0913
      8 C          63.1811   89.4855   16.3815 C.ar    1  UNL1        0.0573
      9 S          62.9650   88.1137   16.9487 S.2     1  UNL1       -0.0508
     10 C          64.4406   90.4676   14.2382 C.ar    1  UNL1        0.0403
     11 C          65.3968   91.5614   14.6116 C.ar    1  UNL1        0.1021
     12 N          65.5577   92.4621   13.4229 N.ar    1  UNL1       -0.2269
     13 C          64.7010   91.9250   12.3149 C.ar    1  UNL1        0.1406
     14 N          64.4605   92.3990   10.9123 N.ar    1  UNL1       -0.3374
     15 C          63.5295   91.6404   10.0136 C.ar    1  UNL1        0.0735
     16 C          62.8391   90.4078   10.5175 C.ar    1  UNL1        0.0186
     17 C          63.0797   89.9337   11.9201 C.ar    1  UNL1        0.0046
     18 C          64.0106   90.6923   12.8188 C.ar    1  UNL1        0.0370
     19 H          64.9136   93.2081   10.5816 H       1  UNL1        0.1674
     20 C          63.2417   83.2442   15.3280 C.3     1  UNL1        0.1118
     21 C          63.0904   82.3338   14.1454 C.ar    1  UNL1       -0.0101
     22 C          62.2758   81.0798   14.2638 C.ar    1  UNL1       -0.0036
     23 C          62.1246   80.1694   13.0812 C.ar    1  UNL1        0.0028
     24 C          62.7878   80.5131   11.7804 C.ar    1  UNL1        0.0369
     25 C          63.6023   81.7671   11.6621 C.ar    1  UNL1        0.1382
     26 C          63.7536   82.6775   12.8446 C.ar    1  UNL1        0.0331
     27 O          64.2655   82.1108   10.3614 O.3     1  UNL1       -0.4755
     28 C          64.3854   83.5443    9.9364 C.3     1  UNL1        0.2054
     29 C          63.1654   84.4153    9.8826 C.3     1  UNL1        0.0473
     30 C          62.9389   85.3169    8.7054 C.3     1  UNL1        0.0039
     31 C          61.6831   86.1324    8.6161 C.3     1  UNL1        0.0029
     32 C          60.6154   85.7600    7.6305 C.3     1  UNL1        0.0171
     33 C          59.3596   86.5755    7.5411 C.3     1  UNL1        0.0686
     34 N          59.1715   87.7635    8.4374 N.3     1  UNL1       -0.2975
     35 C          60.2393   88.1360    9.4230 C.3     1  UNL1        0.0686
     36 C          61.4950   87.3204    9.5123 C.3     1  UNL1        0.0171
     37 H          58.3208   87.5955    8.9744 H       1  UNL1        0.1232
@<TRIPOS>BOND
     1     1     2    2
     2     2    20    1
     3    20    21    1
     4    21    22   ar
     5    22    23   ar
     6    23    24   ar
     7    24    25   ar
     8    25    27    1
     9    27    28    1
    10    28    29    1
    11    29    30    1
    12    30    31    1
    13    31    32    1
    14    32    33    1
    15    33    34    1
    16    34    35    1
    17    35    36    1
    18    25    26   ar
    19     2     3   am
    20     3     5    1
    21     5     6   ar
    22     6     7   ar
    23     7    10    1
    24    10    11   ar
    25    11    12   ar
    26    12    13   ar
    27    13    14   ar
    28    14    15   ar
    29    15    16   ar
    30    16    17   ar
    31    17    18   ar
    32     7     8   ar
    33     8     9   ar
    34    26    21   ar
    35     9     5   ar
    36    36    31    1
    37    18    10   ar
    38    18    13    1
    39    34    37    1
    40     3     4    1
    41    14    19    1
@<TRIPOS>MOLECULE
*****
 37 41 0 0 0
SMALL
GASTEIGER

@<TRIPOS>ATOM
      1 O          62.4495   89.3928   15.8321 O.2     1  UNL1       -0.2744
      2 C          63.8279   89.5007   15.2505 C.2     1  UNL1        0.2320
      3 N          64.5930   88.2592   14.8994 N.am    1  UNL1       -0.2639
      4 H          65.4977   88.3300   14.5176 H       1  UNL1        0.1567
      5 C          63.9797   86.9099   15.1297 C.ar    1  UNL1        0.1655
      6 N          63.7909   85.8391   14.0964 N.ar    1  UNL1       -0.2239
      7 C          63.1420   84.6619   14.7619 C.ar    1  UNL1        0.0913
      8 C          62.9296   85.0050   16.2066 C.ar    1  UNL1        0.0573
      9 S          63.4473   86.3944   16.4339 S.2     1  UNL1       -0.0508
     10 C          62.7705   83.3685   14.0991 C.ar    1  UNL1        0.0403
     11 C          61.9203   82.2853   14.6939 C.ar    1  UNL1        0.1021
     12 N          61.8085   81.1787   13.6876 N.ar    1  UNL1       -0.2269
     13 C          62.5896   81.5778   12.4708 C.ar    1  UNL1        0.1406
     14 N          62.8363   80.8838   11.1642 N.ar    1  UNL1       -0.3374
     15 C          63.6776   81.5432   10.1119 C.ar    1  UNL1        0.0735
     16 C          64.2722   82.8966   10.3662 C.ar    1  UNL1        0.0186
     17 C          64.0255   83.5906   11.6729 C.ar    1  UNL1        0.0046
     18 C          63.1842   82.9312   12.7252 C.ar    1  UNL1        0.0370
     19 H          62.4460   79.9955   10.9972 H       1  UNL1        0.1674
     20 C          64.4413   90.8500   15.0201 C.3     1  UNL1        0.1118
     21 C          64.6406   91.3544   13.6216 C.ar    1  UNL1       -0.0101
     22 C          65.7707   92.2924   13.3166 C.ar    1  UNL1       -0.0036
     23 C          65.9700   92.7969   11.9180 C.ar    1  UNL1        0.0028
     24 C          65.0392   92.3632   10.8245 C.ar    1  UNL1        0.0369
     25 C          63.9092   91.4252   11.1296 C.ar    1  UNL1        0.1382
     26 C          63.7098   90.9208   12.5281 C.ar    1  UNL1        0.0331
     27 O          62.9784   90.9915   10.0362 O.3     1  UNL1       -0.4755
     28 C          61.6411   90.4046   10.3784 C.3     1  UNL1        0.2054
     29 C          61.5536   89.0213   10.9518 C.3     1  UNL1        0.0473
     30 C          62.1862   87.8687   10.2298 C.3     1  UNL1        0.0039
     31 C          61.4001   87.1010    9.2087 C.3     1  UNL1        0.0029
     32 C          59.9559   87.4297    8.9716 C.3     1  UNL1        0.0171
     33 C          59.1697   86.6620    7.9505 C.3     1  UNL1        0.0686
     34 N          59.8278   85.5655    7.1665 N.3     1  UNL1       -0.2975
     35 C          61.2721   85.2368    7.4035 C.3     1  UNL1        0.0686
     36 C          62.0582   86.0046    8.4246 C.3     1  UNL1        0.0171
     37 H          59.7404   85.8148    6.1813 H       1  UNL1        0.1232
@<TRIPOS>BOND
     1     1     2    2
     2     2    20    1
     3    20    21    1
     4    21    22   ar
     5    22    23   ar
     6    23    24   ar
     7    24    25   ar
     8    25    27    1
     9    27    28    1
    10    28    29    1
    11    29    30    1
    12    30    31    1
    13    31    32    1
    14    32    33    1
    15    33    34    1
    16    34    35    1
    17    35    36    1
    18    25    26   ar
    19     2     3   am
    20     3     5    1
    21     5     6   ar
    22     6     7   ar
    23     7    10    1
    24    10    11   ar
    25    11    12   ar
    26    12    13   ar
    27    13    14   ar
    28    14    15   ar
    29    15    16   ar
    30    16    17   ar
    31    17    18   ar
    32     7     8   ar
    33     8     9   ar
    34    26    21   ar
    35     9     5   ar
    36    36    31    1
    37    18    10   ar
    38    18    13    1
    39    34    37    1
    40     3     4    1
    41    14    19    1
@<TRIPOS>MOLECULE
*****
 37 41 0 0 0
SMALL
GASTEIGER

@<TRIPOS>ATOM
      1 O          62.4945   87.4213    9.0635 O.2     1  UNL1       -0.2744
      2 C          62.0564   87.0407   10.4468 C.2     1  UNL1        0.2320
      3 N          62.1585   88.0345   11.5657 N.am    1  UNL1       -0.2639
      4 H          61.8710   87.7847   12.4736 H       1  UNL1        0.1567
      5 C          62.6984   89.4086   11.3015 C.ar    1  UNL1        0.1655
      6 N          63.8333   90.0653   12.0303 N.ar    1  UNL1       -0.2239
      7 C          64.0347   91.4300   11.4413 C.ar    1  UNL1        0.0913
      8 C          63.0243   91.6169   10.3485 C.ar    1  UNL1        0.0573
      9 S          62.1985   90.3677   10.2621 S.2     1  UNL1       -0.0508
     10 C          65.0654   92.4319   11.8699 C.ar    1  UNL1        0.0403
     11 C          65.6535   93.5134   11.0129 C.ar    1  UNL1        0.1021
     12 N          66.6406   94.2781   11.8441 N.ar    1  UNL1       -0.2269
     13 C          66.6625   93.6693   13.2148 C.ar    1  UNL1        0.1406
     14 N          67.4432   94.0064   14.4504 N.ar    1  UNL1       -0.3374
     15 C          67.2504   93.2025   15.7020 C.ar    1  UNL1        0.0735
     16 C          66.2768   92.0615   15.7179 C.ar    1  UNL1        0.0186
     17 C          65.4962   91.7243   14.4823 C.ar    1  UNL1        0.0046
     18 C          65.6890   92.5282   13.2307 C.ar    1  UNL1        0.0370
     19 H          68.0822   94.7553   14.4399 H       1  UNL1        0.1674
     20 C          61.5164   85.6665   10.7110 C.3     1  UNL1        0.1118
     21 C          62.4582   84.5236   10.9495 C.ar    1  UNL1       -0.0101
     22 C          63.3590   84.0516    9.8468 C.ar    1  UNL1       -0.0036
     23 C          64.3009   82.9086   10.0852 C.ar    1  UNL1        0.0028
     24 C          64.3419   82.2379   11.4263 C.ar    1  UNL1        0.0369
     25 C          63.4411   82.7099   12.5289 C.ar    1  UNL1        0.1382
     26 C          62.4993   83.8528   12.2905 C.ar    1  UNL1        0.0331
     27 O          63.4821   82.0391   13.8699 O.3     1  UNL1       -0.4755
     28 C          63.5604   82.8651   15.1195 C.3     1  UNL1        0.2054
     29 C          64.7089   83.8079   15.3248 C.3     1  UNL1        0.0473
     30 C          64.7192   85.1391   14.6336 C.3     1  UNL1        0.0039
     31 C          64.1472   86.3445   15.3191 C.3     1  UNL1        0.0029
     32 C          63.3900   86.1875   16.6044 C.3     1  UNL1        0.0171
     33 C          62.8181   87.3929   17.2900 C.3     1  UNL1        0.0686
     34 N          63.0034   88.7552   16.6903 N.3     1  UNL1       -0.2975
     35 C          63.7606   88.9122   15.4049 C.3     1  UNL1        0.0686
     36 C          64.3325   87.7068   14.7194 C.3     1  UNL1        0.0171
     37 H          63.4870   89.3208   17.3879 H       1  UNL1        0.1232
@<TRIPOS>BOND
     1     1     2    2
     2     2    20    1
     3    20    21    1
     4    21    22   ar
     5    22    23   ar
     6    23    24   ar
     7    24    25   ar
     8    25    27    1
     9    27    28    1
    10    28    29    1
    11    29    30    1
    12    30    31    1
    13    31    32    1
    14    32    33    1
    15    33    34    1
    16    34    35    1
    17    35    36    1
    18    25    26   ar
    19     2     3   am
    20     3     5    1
    21     5     6   ar
    22     6     7   ar
    23     7    10    1
    24    10    11   ar
    25    11    12   ar
    26    12    13   ar
    27    13    14   ar
    28    14    15   ar
    29    15    16   ar
    30    16    17   ar
    31    17    18   ar
    32     7     8   ar
    33     8     9   ar
    34    26    21   ar
    35     9     5   ar
    36    36    31    1
    37    18    10   ar
    38    18    13    1
    39    34    37    1
    40     3     4    1
    41    14    19    1
@<TRIPOS>MOLECULE
*****
 37 41 0 0 0
SMALL
GASTEIGER

@<TRIPOS>ATOM
      1 O          60.1267   89.1487   12.3139 O.2     1  UNL1       -0.2744
      2 C          60.8925   89.0204   11.0306 C.2     1  UNL1        0.2320
      3 N          62.3921   89.0511   11.0458 N.am    1  UNL1       -0.2639
      4 H          62.8947   88.9669   10.2035 H       1  UNL1        0.1567
      5 C          63.1258   89.2102   12.3443 C.ar    1  UNL1        0.1655
      6 N          63.5202   90.5100   12.9808 N.ar    1  UNL1       -0.2239
      7 C          64.2322   90.2005   14.2642 C.ar    1  UNL1        0.0913
      8 C          64.2779   88.7095   14.4210 C.ar    1  UNL1        0.0573
      9 S          63.5942   88.0974   13.2344 S.2     1  UNL1       -0.0508
     10 C          64.7989   91.2056   15.2226 C.ar    1  UNL1        0.0403
     11 C          64.0972   91.7760   16.4193 C.ar    1  UNL1        0.1021
     12 N          65.0315   92.7397   17.0888 N.ar    1  UNL1       -0.2269
     13 C          66.3107   92.7650   16.3059 C.ar    1  UNL1        0.1406
     14 N          67.5878   93.5288   16.4942 N.ar    1  UNL1       -0.3374
     15 C          68.7212   93.3445   15.5290 C.ar    1  UNL1        0.0735
     16 C          68.5774   92.3964   14.3756 C.ar    1  UNL1        0.0186
     17 C          67.3003   91.6326   14.1873 C.ar    1  UNL1        0.0046
     18 C          66.1670   91.8169   15.1524 C.ar    1  UNL1        0.0370
     19 H          67.6822   94.1511   17.2512 H       1  UNL1        0.1674
     20 C          60.1587   88.8613    9.7320 C.3     1  UNL1        0.1118
     21 C          60.3772   87.6379    8.8921 C.ar    1  UNL1       -0.0101
     22 C          59.3589   87.2423    7.8641 C.ar    1  UNL1       -0.0036
     23 C          59.5774   86.0188    7.0240 C.ar    1  UNL1        0.0028
     24 C          60.8141   85.1910    7.2121 C.ar    1  UNL1        0.0369
     25 C          61.8323   85.5866    8.2401 C.ar    1  UNL1        0.1382
     26 C          61.6139   86.8100    9.0800 C.ar    1  UNL1        0.0331
     27 O          63.0690   84.7589    8.4281 O.3     1  UNL1       -0.4755
     28 C          63.5236   84.3927    9.8099 C.3     1  UNL1        0.2054
     29 C          64.2451   83.0986   10.0439 C.3     1  UNL1        0.0473
     30 C          63.5674   81.9858   10.7870 C.3     1  UNL1        0.0039
     31 C          63.2729   82.1317   12.2506 C.3     1  UNL1        0.0029
     32 C          62.0925   81.4280   12.8518 C.3     1  UNL1        0.0171
     33 C          61.7979   81.5738   14.3154 C.3     1  UNL1        0.0686
     34 N          62.6837   82.4234   15.1777 N.3     1  UNL1       -0.2975
     35 C          63.8641   83.1272   14.5764 C.3     1  UNL1        0.0686
     36 C          64.1587   82.9813   13.1128 C.3     1  UNL1        0.0171
     37 H          63.0457   81.8181   15.9145 H       1  UNL1        0.1232
@<TRIPOS>BOND
     1     1     2    2
     2     2    20    1
     3    20    21    1
     4    21    22   ar
     5    22    23   ar
     6    23    24   ar
     7    24    25   ar
     8    25    27    1
     9    27    28    1
    10    28    29    1
    11    29    30    1
    12    30    31    1
    13    31    32    1
    14    32    33    1
    15    33    34    1
    16    34    35    1
    17    35    36    1
    18    25    26   ar
    19     2     3   am
    20     3     5    1
    21     5     6   ar
    22     6     7   ar
    23     7    10    1
    24    10    11   ar
    25    11    12   ar
    26    12    13   ar
    27    13    14   ar
    28    14    15   ar
    29    15    16   ar
    30    16    17   ar
    31    17    18   ar
    32     7     8   ar
    33     8     9   ar
    34    26    21   ar
    35     9     5   ar
    36    36    31    1
    37    18    10   ar
    38    18    13    1
    39    34    37    1
    40     3     4    1
    41    14    19    1
@<TRIPOS>MOLECULE
*****
 37 41 0 0 0
SMALL
GASTEIGER

@<TRIPOS>ATOM
      1 O          60.3670   89.1277   12.1118 O.2     1  UNL1       -0.2744
      2 C          61.0920   88.3586   11.0475 C.2     1  UNL1        0.2320
      3 N          62.4943   88.7367   10.6725 N.am    1  UNL1       -0.2639
      4 H          62.9701   88.2319    9.9740 H       1  UNL1        0.1567
      5 C          63.1716   89.8838   11.3619 C.ar    1  UNL1        0.1655
      6 N          63.6493   89.9002   12.7837 N.ar    1  UNL1       -0.2239
      7 C          64.2630   91.2425   13.0511 C.ar    1  UNL1        0.0913
      8 C          64.1647   92.0557   11.7945 C.ar    1  UNL1        0.0573
      9 S          63.4902   91.2160   10.7506 S.2     1  UNL1       -0.0508
     10 C          64.8688   91.6926   14.3474 C.ar    1  UNL1        0.0403
     11 C          64.1337   91.9041   15.6377 C.ar    1  UNL1        0.1021
     12 N          65.1267   92.3524   16.6687 N.ar    1  UNL1       -0.2269
     13 C          66.4755   92.4180   16.0157 C.ar    1  UNL1        0.1406
     14 N          67.8281   92.7963   16.5420 N.ar    1  UNL1       -0.3374
     15 C          69.0214   92.7669   15.6337 C.ar    1  UNL1        0.0735
     16 C          68.8621   92.3591   14.1990 C.ar    1  UNL1        0.0186
     17 C          67.5094   91.9807   13.6727 C.ar    1  UNL1        0.0046
     18 C          66.3161   92.0102   14.5810 C.ar    1  UNL1        0.0370
     19 H          67.9327   93.0640   17.4837 H       1  UNL1        0.1674
     20 C          60.4147   87.2114   10.3580 C.3     1  UNL1        0.1118
     21 C          61.2146   86.2695    9.5078 C.ar    1  UNL1       -0.0101
     22 C          60.9243   86.1530    8.0407 C.ar    1  UNL1       -0.0036
     23 C          61.7242   85.2110    7.1904 C.ar    1  UNL1        0.0028
     24 C          62.8143   84.3855    7.8072 C.ar    1  UNL1        0.0369
     25 C          63.1045   84.5021    9.2743 C.ar    1  UNL1        0.1382
     26 C          62.3047   85.4440   10.1246 C.ar    1  UNL1        0.0331
     27 O          64.1945   83.6766    9.8911 O.3     1  UNL1       -0.4755
     28 C          63.9086   82.2763   10.3464 C.3     1  UNL1        0.2054
     29 C          63.0817   82.0414   11.5757 C.3     1  UNL1        0.0473
     30 C          63.7344   82.0211   12.9260 C.3     1  UNL1        0.0039
     31 C          63.6061   83.2044   13.8389 C.3     1  UNL1        0.0029
     32 C          64.5966   84.3277   13.7544 C.3     1  UNL1        0.0171
     33 C          64.4684   85.5110   14.6673 C.3     1  UNL1        0.0686
     34 N          63.3495   85.5711   15.6646 N.3     1  UNL1       -0.2975
     35 C          62.3590   84.4477   15.7490 C.3     1  UNL1        0.0686
     36 C          62.4873   83.2644   14.8362 C.3     1  UNL1        0.0171
     37 H          62.8182   86.4175   15.4604 H       1  UNL1        0.1232
@<TRIPOS>BOND
     1     1     2    2
     2     2    20    1
     3    20    21    1
     4    21    22   ar
     5    22    23   ar
     6    23    24   ar
     7    24    25   ar
     8    25    27    1
     9    27    28    1
    10    28    29    1
    11    29    30    1
    12    30    31    1
    13    31    32    1
    14    32    33    1
    15    33    34    1
    16    34    35    1
    17    35    36    1
    18    25    26   ar
    19     2     3   am
    20     3     5    1
    21     5     6   ar
    22     6     7   ar
    23     7    10    1
    24    10    11   ar
    25    11    12   ar
    26    12    13   ar
    27    13    14   ar
    28    14    15   ar
    29    15    16   ar
    30    16    17   ar
    31    17    18   ar
    32     7     8   ar
    33     8     9   ar
    34    26    21   ar
    35     9     5   ar
    36    36    31    1
    37    18    10   ar
    38    18    13    1
    39    34    37    1
    40     3     4    1
    41    14    19    1
@<TRIPOS>MOLECULE
*****
 37 41 0 0 0
SMALL
GASTEIGER

@<TRIPOS>ATOM
      1 O          60.8347   89.6772   11.7856 O.2     1  UNL1       -0.2744
      2 C          61.4079   88.3226   11.4914 C.2     1  UNL1        0.2320
      3 N          62.7622   87.9508   12.0181 N.am    1  UNL1       -0.2639
      4 H          63.1384   87.0618   11.8250 H       1  UNL1        0.1567
      5 C          63.5434   88.9335   12.8390 C.ar    1  UNL1        0.1655
      6 N          64.0673   90.2574   12.3668 N.ar    1  UNL1       -0.2239
      7 C          64.7855   90.9070   13.5122 C.ar    1  UNL1        0.0913
      8 C          64.7055   89.9847   14.6925 C.ar    1  UNL1        0.0573
      9 S          63.9379   88.7650   14.2764 S.2     1  UNL1       -0.0508
     10 C          65.4645   92.2442   13.4827 C.ar    1  UNL1        0.0403
     11 C          66.0235   92.9755   14.6671 C.ar    1  UNL1        0.1021
     12 N          66.6082   94.2681   14.1799 N.ar    1  UNL1       -0.2269
     13 C          66.4105   94.3357   12.6946 C.ar    1  UNL1        0.1406
     14 N          66.7827   95.3747   11.6787 N.ar    1  UNL1       -0.3374
     15 C          66.4482   95.1628   10.2320 C.ar    1  UNL1        0.0735
     16 C          65.7413   93.9119    9.8011 C.ar    1  UNL1        0.0186
     17 C          65.3690   92.8730   10.8169 C.ar    1  UNL1        0.0046
     18 C          65.7036   93.0849   12.2637 C.ar    1  UNL1        0.0370
     19 H          67.2467   96.1957   11.9616 H       1  UNL1        0.1674
     20 C          60.6267   87.3399   10.6704 C.3     1  UNL1        0.1118
     21 C          61.3427   86.3850    9.7619 C.ar    1  UNL1       -0.0101
     22 C          61.0131   86.3517    8.2988 C.ar    1  UNL1       -0.0036
     23 C          61.7291   85.3967    7.3902 C.ar    1  UNL1        0.0028
     24 C          62.7747   84.4751    7.9446 C.ar    1  UNL1        0.0369
     25 C          63.1043   84.5084    9.4076 C.ar    1  UNL1        0.1382
     26 C          62.3884   85.4633   10.3162 C.ar    1  UNL1        0.0331
     27 O          64.1499   83.5868    9.9620 O.3     1  UNL1       -0.4755
     28 C          63.7933   82.1729   10.3134 C.3     1  UNL1        0.2054
     29 C          63.5168   81.8015   11.7402 C.3     1  UNL1        0.0473
     30 C          62.5894   82.6413   12.5676 C.3     1  UNL1        0.0039
     31 C          63.1408   83.5317   13.6415 C.3     1  UNL1        0.0029
     32 C          62.2869   83.9072   14.8162 C.3     1  UNL1        0.0171
     33 C          62.8383   84.7976   15.8901 C.3     1  UNL1        0.0686
     34 N          64.2435   85.3124   15.7893 N.3     1  UNL1       -0.2975
     35 C          65.0974   84.9369   14.6146 C.3     1  UNL1        0.0686
     36 C          64.5460   84.0465   13.5407 C.3     1  UNL1        0.0171
     37 H          64.7347   84.9932   16.6243 H       1  UNL1        0.1232
@<TRIPOS>BOND
     1     1     2    2
     2     2    20    1
     3    20    21    1
     4    21    22   ar
     5    22    23   ar
     6    23    24   ar
     7    24    25   ar
     8    25    27    1
     9    27    28    1
    10    28    29    1
    11    29    30    1
    12    30    31    1
    13    31    32    1
    14    32    33    1
    15    33    34    1
    16    34    35    1
    17    35    36    1
    18    25    26   ar
    19     2     3   am
    20     3     5    1
    21     5     6   ar
    22     6     7   ar
    23     7    10    1
    24    10    11   ar
    25    11    12   ar
    26    12    13   ar
    27    13    14   ar
    28    14    15   ar
    29    15    16   ar
    30    16    17   ar
    31    17    18   ar
    32     7     8   ar
    33     8     9   ar
    34    26    21   ar
    35     9     5   ar
    36    36    31    1
    37    18    10   ar
    38    18    13    1
    39    34    37    1
    40     3     4    1
    41    14    19    1
@<TRIPOS>MOLECULE
*****
 37 41 0 0 0
SMALL
GASTEIGER

@<TRIPOS>ATOM
      1 O          61.0623   90.8427   10.9186 O.2     1  UNL1       -0.2744
      2 C          61.2569   89.4645   11.4779 C.2     1  UNL1        0.2320
      3 N          62.4521   89.1641   12.3330 N.am    1  UNL1       -0.2639
      4 H          62.5799   88.2596   12.7001 H       1  UNL1        0.1567
      5 C          63.4526   90.2418   12.6288 C.ar    1  UNL1        0.1655
      6 N          64.0554   91.1838   11.6292 N.ar    1  UNL1       -0.2239
      7 C          65.0014   92.0909   12.3587 C.ar    1  UNL1        0.0913
      8 C          64.9833   91.7096   13.8093 C.ar    1  UNL1        0.0573
      9 S          64.0261   90.5668   13.9762 S.2     1  UNL1       -0.0508
     10 C          65.8215   93.1869   11.7454 C.ar    1  UNL1        0.0403
     11 C          65.7529   94.6429   12.0993 C.ar    1  UNL1        0.1021
     12 N          66.7432   95.3752   11.2431 N.ar    1  UNL1       -0.2269
     13 C          67.4238   94.3717   10.3600 C.ar    1  UNL1        0.1406
     14 N          68.4887   94.5148    9.3133 N.ar    1  UNL1       -0.3374
     15 C          68.9839   93.3054    8.5771 C.ar    1  UNL1        0.0735
     16 C          68.4142   91.9530    8.8875 C.ar    1  UNL1        0.0186
     17 C          67.3494   91.8099    9.9342 C.ar    1  UNL1        0.0046
     18 C          66.8542   93.0193   10.6704 C.ar    1  UNL1        0.0370
     19 H          68.8626   95.4025    9.1096 H       1  UNL1        0.1674
     20 C          60.2564   88.3868   11.1821 C.3     1  UNL1        0.1118
     21 C          60.4678   87.4666   10.0166 C.ar    1  UNL1       -0.0101
     22 C          59.4637   87.4238    8.9030 C.ar    1  UNL1       -0.0036
     23 C          59.6751   86.5036    7.7374 C.ar    1  UNL1        0.0028
     24 C          60.8906   85.6261    7.6855 C.ar    1  UNL1        0.0369
     25 C          61.8946   85.6688    8.7990 C.ar    1  UNL1        0.1382
     26 C          61.6833   86.5890    9.9646 C.ar    1  UNL1        0.0331
     27 O          63.1101   84.7913    8.7471 O.3     1  UNL1       -0.4755
     28 C          63.6394   84.1680   10.0045 C.3     1  UNL1        0.2054
     29 C          64.1844   82.7707    9.9773 C.3     1  UNL1        0.0473
     30 C          63.5466   81.7005   10.8126 C.3     1  UNL1        0.0039
     31 C          63.2511   81.9560   12.2609 C.3     1  UNL1        0.0029
     32 C          64.1603   82.8342   13.0683 C.3     1  UNL1        0.0171
     33 C          63.8649   83.0897   14.5166 C.3     1  UNL1        0.0686
     34 N          62.6602   82.4669   15.1574 N.3     1  UNL1       -0.2975
     35 C          61.7509   81.5886   14.3500 C.3     1  UNL1        0.0686
     36 C          62.0463   81.3332   12.9017 C.3     1  UNL1        0.0171
     37 H          62.0887   83.2320   15.5158 H       1  UNL1        0.1232
@<TRIPOS>BOND
     1     1     2    2
     2     2    20    1
     3    20    21    1
     4    21    22   ar
     5    22    23   ar
     6    23    24   ar
     7    24    25   ar
     8    25    27    1
     9    27    28    1
    10    28    29    1
    11    29    30    1
    12    30    31    1
    13    31    32    1
    14    32    33    1
    15    33    34    1
    16    34    35    1
    17    35    36    1
    18    25    26   ar
    19     2     3   am
    20     3     5    1
    21     5     6   ar
    22     6     7   ar
    23     7    10    1
    24    10    11   ar
    25    11    12   ar
    26    12    13   ar
    27    13    14   ar
    28    14    15   ar
    29    15    16   ar
    30    16    17   ar
    31    17    18   ar
    32     7     8   ar
    33     8     9   ar
    34    26    21   ar
    35     9     5   ar
    36    36    31    1
    37    18    10   ar
    38    18    13    1
    39    34    37    1
    40     3     4    1
    41    14    19    1
@<TRIPOS>MOLECULE
*****
 37 41 0 0 0
SMALL
GASTEIGER

@<TRIPOS>ATOM
      1 O          63.1886   89.1311   14.1825 O.2     1  UNL1       -0.2744
      2 C          63.5200   89.4989   15.5985 C.2     1  UNL1        0.2320
      3 N          63.5637   88.4383   16.6583 N.am    1  UNL1       -0.2639
      4 H          63.7812   88.6797   17.5876 H       1  UNL1        0.1567
      5 C          63.2759   87.0100   16.3022 C.ar    1  UNL1        0.1655
      6 N          63.8228   86.2690   15.1182 N.ar    1  UNL1       -0.2239
      7 C          63.2757   84.8728   15.1518 C.ar    1  UNL1        0.0913
      8 C          62.3905   84.7508   16.3566 C.ar    1  UNL1        0.0573
      9 S          62.3907   86.0716   17.0676 S.2     1  UNL1       -0.0508
     10 C          63.5631   83.7889   14.1556 C.ar    1  UNL1        0.0403
     11 C          63.9961   82.3890   14.4761 C.ar    1  UNL1        0.1021
     12 N          64.1686   81.6495   13.1825 N.ar    1  UNL1       -0.2269
     13 C          63.8423   82.5924   12.0624 C.ar    1  UNL1        0.1406
     14 N          63.8375   82.4179   10.5727 N.ar    1  UNL1       -0.3374
     15 C          63.4586   83.5655    9.6843 C.ar    1  UNL1        0.0735
     16 C          63.0844   84.8877   10.2857 C.ar    1  UNL1        0.0186
     17 C          63.0891   85.0623   11.7755 C.ar    1  UNL1        0.0046
     18 C          63.4680   83.9147   12.6639 C.ar    1  UNL1        0.0370
     19 H          64.0831   81.5501   10.1780 H       1  UNL1        0.1674
     20 C          63.8078   90.9273   15.9546 C.3     1  UNL1        0.1118
     21 C          64.9590   91.6431   15.3123 C.ar    1  UNL1       -0.0101
     22 C          65.9887   92.3236   16.1649 C.ar    1  UNL1       -0.0036
     23 C          67.1399   93.0394   15.5226 C.ar    1  UNL1        0.0028
     24 C          67.2614   93.0747   14.0279 C.ar    1  UNL1        0.0369
     25 C          66.2316   92.3943   13.1755 C.ar    1  UNL1        0.1382
     26 C          65.0805   91.6785   13.8176 C.ar    1  UNL1        0.0331
     27 O          66.3531   92.4296   11.6808 O.3     1  UNL1       -0.4755
     28 C          65.1250   92.3254   10.8259 C.3     1  UNL1        0.2054
     29 C          63.9970   91.4274   11.2397 C.3     1  UNL1        0.0473
     30 C          62.9862   90.9775   10.2268 C.3     1  UNL1        0.0039
     31 C          61.8972   90.0261   10.6254 C.3     1  UNL1        0.0029
     32 C          61.9281   88.6062   10.1431 C.3     1  UNL1        0.0171
     33 C          60.8392   87.6547   10.5417 C.3     1  UNL1        0.0686
     34 N          59.7192   88.1232   11.4227 N.3     1  UNL1       -0.2975
     35 C          59.6883   89.5433   11.9051 C.3     1  UNL1        0.0686
     36 C          60.7773   90.4947   11.5064 C.3     1  UNL1        0.0171
     37 H          59.7298   87.5305   12.2527 H       1  UNL1        0.1232
@<TRIPOS>BOND
     1     1     2    2
     2     2    20    1
     3    20    21    1
     4    21    22   ar
     5    22    23   ar
     6    23    24   ar
     7    24    25   ar
     8    25    27    1
     9    27    28    1
    10    28    29    1
    11    29    30    1
    12    30    31    1
    13    31    32    1
    14    32    33    1
    15    33    34    1
    16    34    35    1
    17    35    36    1
    18    25    26   ar
    19     2     3   am
    20     3     5    1
    21     5     6   ar
    22     6     7   ar
    23     7    10    1
    24    10    11   ar
    25    11    12   ar
    26    12    13   ar
    27    13    14   ar
    28    14    15   ar
    29    15    16   ar
    30    16    17   ar
    31    17    18   ar
    32     7     8   ar
    33     8     9   ar
    34    26    21   ar
    35     9     5   ar
    36    36    31    1
    37    18    10   ar
    38    18    13    1
    39    34    37    1
    40     3     4    1
    41    14    19    1
@<TRIPOS>MOLECULE
*****
 37 41 0 0 0
SMALL
GASTEIGER

@<TRIPOS>ATOM
      1 O          62.9461   89.2792   14.1779 O.2     1  UNL1       -0.2744
      2 C          63.4616   89.5711   15.5559 C.2     1  UNL1        0.2320
      3 N          63.6746   88.4505   16.5300 N.am    1  UNL1       -0.2639
      4 H          64.0130   88.6421   17.4344 H       1  UNL1        0.1567
      5 C          63.3721   87.0381   16.1261 C.ar    1  UNL1        0.1655
      6 N          63.8868   86.3417   14.9012 N.ar    1  UNL1       -0.2239
      7 C          63.3345   84.9471   14.8942 C.ar    1  UNL1        0.0913
      8 C          62.4784   84.7815   16.1147 C.ar    1  UNL1        0.0573
      9 S          62.5016   86.0737   16.8761 S.2     1  UNL1       -0.0508
     10 C          63.5929   83.9017   13.8500 C.ar    1  UNL1        0.0403
     11 C          64.5897   83.9984   12.7333 C.ar    1  UNL1        0.1021
     12 N          64.5126   82.7325   11.9324 N.ar    1  UNL1       -0.2269
     13 C          63.4682   81.8534   12.5541 C.ar    1  UNL1        0.1406
     14 N          62.9614   80.4883   12.1941 N.ar    1  UNL1       -0.3374
     15 C          61.8862   79.8459   13.0194 C.ar    1  UNL1        0.0735
     16 C          61.3177   80.5685   14.2046 C.ar    1  UNL1        0.0186
     17 C          61.8245   81.9336   14.5645 C.ar    1  UNL1        0.0046
     18 C          62.8998   82.5760   13.7393 C.ar    1  UNL1        0.0370
     19 H          63.3345   80.0140   11.4163 H       1  UNL1        0.1674
     20 C          63.7642   90.9837   15.9599 C.3     1  UNL1        0.1118
     21 C          64.9127   91.7143   15.3296 C.ar    1  UNL1       -0.0101
     22 C          65.9448   92.3768   16.1934 C.ar    1  UNL1       -0.0036
     23 C          67.0933   93.1075   15.5632 C.ar    1  UNL1        0.0028
     24 C          67.2097   93.1757   14.0693 C.ar    1  UNL1        0.0369
     25 C          66.1776   92.5133   13.2056 C.ar    1  UNL1        0.1382
     26 C          65.0291   91.7826   13.8357 C.ar    1  UNL1        0.0331
     27 O          66.2939   92.5815   11.7116 O.3     1  UNL1       -0.4755
     28 C          65.0793   92.3804   10.8548 C.3     1  UNL1        0.2054
     29 C          64.0520   91.3568   11.2381 C.3     1  UNL1        0.0473
     30 C          63.0424   90.8935   10.2302 C.3     1  UNL1        0.0039
     31 C          61.9784   89.9147   10.6299 C.3     1  UNL1        0.0029
     32 C          62.1017   88.4717   10.2392 C.3     1  UNL1        0.0171
     33 C          61.0376   87.4928   10.6389 C.3     1  UNL1        0.0686
     34 N          59.8503   87.9570   11.4293 N.3     1  UNL1       -0.2975
     35 C          59.7270   89.4001   11.8200 C.3     1  UNL1        0.0686
     36 C          60.7910   90.3788   11.4203 C.3     1  UNL1        0.0171
     37 H          59.8425   87.4161   12.2940 H       1  UNL1        0.1232
@<TRIPOS>BOND
     1     1     2    2
     2     2    20    1
     3    20    21    1
     4    21    22   ar
     5    22    23   ar
     6    23    24   ar
     7    24    25   ar
     8    25    27    1
     9    27    28    1
    10    28    29    1
    11    29    30    1
    12    30    31    1
    13    31    32    1
    14    32    33    1
    15    33    34    1
    16    34    35    1
    17    35    36    1
    18    25    26   ar
    19     2     3   am
    20     3     5    1
    21     5     6   ar
    22     6     7   ar
    23     7    10    1
    24    10    11   ar
    25    11    12   ar
    26    12    13   ar
    27    13    14   ar
    28    14    15   ar
    29    15    16   ar
    30    16    17   ar
    31    17    18   ar
    32     7     8   ar
    33     8     9   ar
    34    26    21   ar
    35     9     5   ar
    36    36    31    1
    37    18    10   ar
    38    18    13    1
    39    34    37    1
    40     3     4    1
    41    14    19    1
