@<TRIPOS>MOLECULE
*****
 44 49 0 0 0
SMALL
GASTEIGER

@<TRIPOS>ATOM
      1 N          64.6515   90.0530   13.5492 N.ar    1  UNL1       -0.2823
      2 C          64.5349   88.9138   14.5180 C.ar    1  UNL1        0.1831
      3 N          63.6045   87.8963   13.9272 N.ar    1  UNL1       -0.2236
      4 C          63.1460   88.4067   12.5932 C.ar    1  UNL1        0.0991
      5 C          62.2229   87.8300   11.5612 C.ar    1  UNL1        0.0206
      6 C          61.9469   88.5861   10.2955 C.ar    1  UNL1        0.0017
      7 C          62.5940   89.9191   10.0619 C.ar    1  UNL1        0.0016
      8 C          63.5171   90.4958   11.0940 C.ar    1  UNL1        0.0191
      9 C          63.7931   89.7397   12.3596 C.ar    1  UNL1        0.0835
     10 C          61.0238   88.0094    9.2634 C.ar    1  UNL1        0.0044
     11 C          61.0387   86.5358    8.9834 C.ar    1  UNL1        0.0208
     12 C          60.1157   85.9590    7.9514 C.ar    1  UNL1        0.1003
     13 N          59.1776   86.8559    7.1991 N.ar    1  UNL1       -0.2294
     14 C          59.1626   88.3294    7.4790 C.ar    1  UNL1        0.1285
     15 C          60.0858   88.9062    8.5112 C.ar    1  UNL1        0.0341
     16 N          58.2246   89.2263    6.7269 N.pl3   1  UNL1       -0.3196
     17 H          57.2522   89.1390    6.8538 H       1  UNL1        0.1481
     18 C          58.7681   90.2559    5.7812 C.3     1  UNL1        0.0731
     19 C          60.2381   90.3014    5.4859 C.3     1  UNL1        0.0369
     20 C          60.7816   91.3312    4.5402 C.3     1  UNL1        0.0738
     21 N          59.8551   92.3154    3.8899 N.3     1  UNL1       -0.2714
     22 C          60.3986   93.3451    2.9443 C.3     1  UNL1        0.0896
     23 C          58.3852   92.2700    4.1852 C.3     1  UNL1        0.0738
     24 C          57.8417   91.2403    5.1309 C.3     1  UNL1        0.0369
     25 C          66.3169   93.5590   13.5434 C.ar    1  UNL1        0.1512
     26 C          65.2562   92.6116   13.0667 C.ar    1  UNL1        0.0619
     27 C          65.4808   91.2887   13.7369 C.ar    1  UNL1        0.0987
     28 S          66.6805   91.4184   14.6280 S.2     1  UNL1       -0.0618
     29 C          67.1972   92.8215   14.5084 C.ar    1  UNL1        0.1178
     30 C          68.3857   93.3877   15.2276 C.2     1  UNL1        0.2518
     31 N          69.7723   93.0091   14.7986 N.am    1  UNL1       -0.3248
     32 O          68.1874   94.3324   16.3757 O.2     1  UNL1       -0.2697
     33 H          69.9024   92.3891   14.0450 H       1  UNL1        0.1453
     34 H          70.5522   93.3807   15.2706 H       1  UNL1        0.1453
     35 O          66.4705   94.9921   13.1281 O.3     1  UNL1       -0.4740
     36 C          65.5567   96.5812   11.2870 C.3     1  UNL1        0.0523
     37 C          66.3500   95.3709   11.6818 C.3     1  UNL1        0.1891
     38 C          67.0229   94.5393   10.6302 C.ar    1  UNL1        0.0278
     39 C          67.2090   93.0664   10.8442 C.ar    1  UNL1        0.0000
     40 C          67.8818   92.2349    9.7926 C.ar    1  UNL1       -0.0002
     41 C          68.3685   92.8763    8.5270 C.ar    1  UNL1        0.0008
     42 C          68.1824   94.3491    8.3130 C.ar    1  UNL1        0.0112
     43 C          67.5095   95.1808    9.3646 C.ar    1  UNL1        0.0570
     44 CL         67.3234   96.6536    9.1506 Cl      1  UNL1       -0.0825
@<TRIPOS>BOND
     1    37    36    1
     2    37    35    1
     3    35    25    1
     4    25    26   ar
     5    26    27   ar
     6    27     1    1
     7     1     2   ar
     8     2     3   ar
     9     3     4   ar
    10     4     5   ar
    11     5     6   ar
    12     6    10    1
    13    10    11   ar
    14    11    12   ar
    15    12    13   ar
    16    13    14   ar
    17    14    16    1
    18    16    18    1
    19    18    19    1
    20    19    20    1
    21    20    21    1
    22    21    22    1
    23    21    23    1
    24    23    24    1
    25    14    15   ar
    26     6     7   ar
    27     7     8   ar
    28     8     9   ar
    29    27    28   ar
    30    28    29   ar
    31    29    30    1
    32    30    31   am
    33    30    32    2
    34    37    38    1
    35    38    39   ar
    36    39    40   ar
    37    40    41   ar
    38    41    42   ar
    39    42    43   ar
    40    43    44    1
    41    29    25   ar
    42    43    38   ar
    43     9     1   ar
    44     9     4   ar
    45    15    10   ar
    46    24    18    1
    47    16    17    1
    48    31    33    1
    49    31    34    1
@<TRIPOS>MOLECULE
*****
 44 49 0 0 0
SMALL
GASTEIGER

@<TRIPOS>ATOM
      1 N          61.6660   86.2505    9.8655 N.ar    1  UNL1       -0.2823
      2 C          61.4710   85.0104    9.0445 C.ar    1  UNL1        0.1831
      3 N          60.7196   85.3899    7.8029 N.ar    1  UNL1       -0.2236
      4 C          60.4503   86.8645    7.8566 C.ar    1  UNL1        0.0991
      5 C          59.7480   87.7916    6.9094 C.ar    1  UNL1        0.0206
      6 C          59.6306   89.2507    7.2370 C.ar    1  UNL1        0.0017
      7 C          60.2155   89.7826    8.5118 C.ar    1  UNL1        0.0016
      8 C          60.9178   88.8555    9.4589 C.ar    1  UNL1        0.0191
      9 C          61.0352   87.3964    9.1314 C.ar    1  UNL1        0.0835
     10 C          58.9283   90.1779    6.2898 C.ar    1  UNL1        0.0044
     11 C          57.4664   89.9956    6.0076 C.ar    1  UNL1        0.0208
     12 C          56.7641   90.9228    5.0604 C.ar    1  UNL1        0.1003
     13 N          57.5237   92.0323    4.3955 N.ar    1  UNL1       -0.2294
     14 C          58.9856   92.2146    4.6777 C.ar    1  UNL1        0.1285
     15 C          59.6879   91.2873    5.6249 C.ar    1  UNL1        0.0341
     16 N          59.7452   93.3240    4.0128 N.pl3   1  UNL1       -0.3196
     17 H          59.9302   94.1571    4.5037 H       1  UNL1        0.1481
     18 C          60.2229   93.1641    2.6000 C.3     1  UNL1        0.0731
     19 C          59.2449   93.2356    1.4649 C.3     1  UNL1        0.0369
     20 C          59.7227   93.0757    0.0520 C.3     1  UNL1        0.0738
     21 N          61.1785   92.8444   -0.2258 N.3     1  UNL1       -0.2714
     22 C          61.6562   92.6845   -1.6386 C.3     1  UNL1        0.0896
     23 C          62.1565   92.7729    0.9093 C.3     1  UNL1        0.0738
     24 C          61.6787   92.9327    2.3221 C.3     1  UNL1        0.0369
     25 C          63.5542   87.1899   13.1240 C.ar    1  UNL1        0.1512
     26 C          62.9508   87.5684   11.8039 C.ar    1  UNL1        0.0619
     27 C          62.3685   86.3307   11.1884 C.ar    1  UNL1        0.0987
     28 S          62.6119   85.1871   12.1281 S.2     1  UNL1       -0.0618
     29 C          63.3447   85.7181   13.3243 C.ar    1  UNL1        0.1178
     30 C          63.7900   84.9178   14.5124 C.2     1  UNL1        0.2518
     31 N          65.0363   85.3039   15.2524 N.am    1  UNL1       -0.3248
     32 O          62.9888   83.7315   14.9604 O.2     1  UNL1       -0.2697
     33 H          65.5621   86.0826   14.9584 H       1  UNL1        0.1453
     34 H          65.3285   84.7787   16.0321 H       1  UNL1        0.1453
     35 O          64.2456   88.1197   14.0764 O.3     1  UNL1       -0.4740
     36 C          62.9425   89.9806   15.3371 C.3     1  UNL1        0.0523
     37 C          63.8011   89.5482   14.1856 C.3     1  UNL1        0.1891
     38 C          64.2153   90.5443   13.1434 C.ar    1  UNL1        0.0278
     39 C          63.4397   90.6581   11.8645 C.ar    1  UNL1        0.0000
     40 C          63.8539   91.6542   10.8223 C.ar    1  UNL1       -0.0002
     41 C          65.0437   92.5364   11.0589 C.ar    1  UNL1        0.0008
     42 C          65.8193   92.4226   12.3377 C.ar    1  UNL1        0.0112
     43 C          65.4051   91.4265   13.3800 C.ar    1  UNL1        0.0570
     44 CL         66.1807   91.3127   14.6588 Cl      1  UNL1       -0.0825
@<TRIPOS>BOND
     1    37    36    1
     2    37    35    1
     3    35    25    1
     4    25    26   ar
     5    26    27   ar
     6    27     1    1
     7     1     2   ar
     8     2     3   ar
     9     3     4   ar
    10     4     5   ar
    11     5     6   ar
    12     6    10    1
    13    10    11   ar
    14    11    12   ar
    15    12    13   ar
    16    13    14   ar
    17    14    16    1
    18    16    18    1
    19    18    19    1
    20    19    20    1
    21    20    21    1
    22    21    22    1
    23    21    23    1
    24    23    24    1
    25    14    15   ar
    26     6     7   ar
    27     7     8   ar
    28     8     9   ar
    29    27    28   ar
    30    28    29   ar
    31    29    30    1
    32    30    31   am
    33    30    32    2
    34    37    38    1
    35    38    39   ar
    36    39    40   ar
    37    40    41   ar
    38    41    42   ar
    39    42    43   ar
    40    43    44    1
    41    29    25   ar
    42    43    38   ar
    43     9     1   ar
    44     9     4   ar
    45    15    10   ar
    46    24    18    1
    47    16    17    1
    48    31    33    1
    49    31    34    1
@<TRIPOS>MOLECULE
*****
 44 49 0 0 0
SMALL
GASTEIGER

@<TRIPOS>ATOM
      1 N          59.1639   90.6027    5.7510 N.ar    1  UNL1       -0.2823
      2 C          57.7576   91.0887    5.5608 C.ar    1  UNL1        0.1831
      3 N          57.7474   92.0341    4.3963 N.ar    1  UNL1       -0.2236
      4 C          59.1474   92.1324    3.8668 C.ar    1  UNL1        0.0991
      5 C          59.7381   92.9132    2.7304 C.ar    1  UNL1        0.0206
      6 C          61.2042   92.8093    2.4312 C.ar    1  UNL1        0.0017
      7 C          62.0797   91.9246    3.2685 C.ar    1  UNL1        0.0016
      8 C          61.4890   91.1438    4.4049 C.ar    1  UNL1        0.0191
      9 C          60.0228   91.2477    4.7040 C.ar    1  UNL1        0.0835
     10 C          61.7950   93.5900    1.2948 C.ar    1  UNL1        0.0044
     11 C          62.8353   94.6364    1.5646 C.ar    1  UNL1        0.0208
     12 C          63.4261   95.4172    0.4283 C.ar    1  UNL1        0.1003
     13 N          62.9766   95.1516   -0.9780 N.ar    1  UNL1       -0.2294
     14 C          61.9363   94.1052   -1.2478 C.ar    1  UNL1        0.1285
     15 C          61.3455   93.3244   -0.1114 C.ar    1  UNL1        0.0341
     16 N          61.4867   93.8396   -2.6539 N.pl3   1  UNL1       -0.3196
     17 H          60.5260   93.8199   -2.8682 H       1  UNL1        0.1481
     18 C          62.5010   93.6039   -3.7337 C.3     1  UNL1        0.0731
     19 C          62.3390   94.2627   -5.0715 C.3     1  UNL1        0.0369
     20 C          63.3533   94.0270   -6.1512 C.3     1  UNL1        0.0738
     21 N          64.5295   93.1326   -5.8931 N.3     1  UNL1       -0.2714
     22 C          65.5437   92.8970   -6.9728 C.3     1  UNL1        0.0896
     23 C          64.6914   92.4739   -4.5552 C.3     1  UNL1        0.0738
     24 C          63.6772   92.7095   -3.4755 C.3     1  UNL1        0.0369
     25 C          60.4785   88.7331    8.8882 C.ar    1  UNL1        0.1512
     26 C          60.1175   90.0022    8.1748 C.ar    1  UNL1        0.0619
     27 C          59.6295   89.6406    6.8034 C.ar    1  UNL1        0.0987
     28 S          59.6889   88.1478    6.6690 S.2     1  UNL1       -0.0618
     29 C          60.2136   87.5869    7.9574 C.ar    1  UNL1        0.1178
     30 C          60.4346   86.1348    8.2617 C.2     1  UNL1        0.2518
     31 N          60.9705   85.7221    9.6006 N.am    1  UNL1       -0.3248
     32 O          60.1197   85.0953    7.2272 O.2     1  UNL1       -0.2697
     33 H          61.1771   86.4044   10.2796 H       1  UNL1        0.1453
     34 H          61.1155   84.7691    9.8003 H       1  UNL1        0.1453
     35 O          61.0109   88.6284   10.2865 O.3     1  UNL1       -0.4740
     36 C          59.8428   90.3520   11.8404 C.3     1  UNL1        0.0523
     37 C          61.0791   89.8485   11.1564 C.3     1  UNL1        0.1891
     38 C          62.3837   90.5650   11.3422 C.ar    1  UNL1        0.0278
     39 C          62.9975   91.3146   10.1970 C.ar    1  UNL1        0.0000
     40 C          64.3021   92.0312   10.3829 C.ar    1  UNL1       -0.0002
     41 C          64.9929   91.9982   11.7139 C.ar    1  UNL1        0.0008
     42 C          64.3791   91.2487   12.8591 C.ar    1  UNL1        0.0112
     43 C          63.0745   90.5321   12.6733 C.ar    1  UNL1        0.0570
     44 CL         62.4608   89.7826   13.8184 Cl      1  UNL1       -0.0825
@<TRIPOS>BOND
     1    37    36    1
     2    37    35    1
     3    35    25    1
     4    25    26   ar
     5    26    27   ar
     6    27     1    1
     7     1     2   ar
     8     2     3   ar
     9     3     4   ar
    10     4     5   ar
    11     5     6   ar
    12     6    10    1
    13    10    11   ar
    14    11    12   ar
    15    12    13   ar
    16    13    14   ar
    17    14    16    1
    18    16    18    1
    19    18    19    1
    20    19    20    1
    21    20    21    1
    22    21    22    1
    23    21    23    1
    24    23    24    1
    25    14    15   ar
    26     6     7   ar
    27     7     8   ar
    28     8     9   ar
    29    27    28   ar
    30    28    29   ar
    31    29    30    1
    32    30    31   am
    33    30    32    2
    34    37    38    1
    35    38    39   ar
    36    39    40   ar
    37    40    41   ar
    38    41    42   ar
    39    42    43   ar
    40    43    44    1
    41    29    25   ar
    42    43    38   ar
    43     9     1   ar
    44     9     4   ar
    45    15    10   ar
    46    24    18    1
    47    16    17    1
    48    31    33    1
    49    31    34    1
@<TRIPOS>MOLECULE
*****
 44 49 0 0 0
SMALL
GASTEIGER

@<TRIPOS>ATOM
      1 N          59.2016   90.2654    6.2292 N.ar    1  UNL1       -0.2823
      2 C          57.7772   90.6370    5.9414 C.ar    1  UNL1        0.1831
      3 N          57.7599   91.4817    4.7019 N.ar    1  UNL1       -0.2236
      4 C          59.1737   91.6320    4.2237 C.ar    1  UNL1        0.0991
      5 C          59.7648   92.3563    3.0507 C.ar    1  UNL1        0.0206
      6 C          61.2470   92.3289    2.8217 C.ar    1  UNL1        0.0017
      7 C          62.1380   91.5772    3.7656 C.ar    1  UNL1        0.0016
      8 C          61.5468   90.8529    4.9386 C.ar    1  UNL1        0.0191
      9 C          60.0647   90.8803    5.1677 C.ar    1  UNL1        0.0835
     10 C          61.8382   93.0532    1.6486 C.ar    1  UNL1        0.0044
     11 C          63.2068   93.6582    1.7529 C.ar    1  UNL1        0.0208
     12 C          63.7980   94.3824    0.5800 C.ar    1  UNL1        0.1003
     13 N          63.0206   94.5018   -0.6973 N.ar    1  UNL1       -0.2294
     14 C          61.6519   93.8968   -0.8016 C.ar    1  UNL1        0.1285
     15 C          61.0607   93.1725    0.3714 C.ar    1  UNL1        0.0341
     16 N          60.8745   94.0162   -2.0788 N.pl3   1  UNL1       -0.3196
     17 H          61.3480   94.0658   -2.9405 H       1  UNL1        0.1481
     18 C          59.3756   94.0599   -2.0431 C.3     1  UNL1        0.0731
     19 C          58.6743   95.2061   -1.3766 C.3     1  UNL1        0.0369
     20 C          57.1754   95.2498   -1.3409 C.3     1  UNL1        0.0738
     21 N          56.3777   94.1472   -1.9717 N.3     1  UNL1       -0.2714
     22 C          54.8788   94.1909   -1.9360 C.3     1  UNL1        0.0896
     23 C          57.0789   93.0010   -2.6383 C.3     1  UNL1        0.0738
     24 C          58.5778   92.9572   -2.6740 C.3     1  UNL1        0.0369
     25 C          60.3085   87.5150    8.7344 C.ar    1  UNL1        0.1512
     26 C          59.7891   87.9303    7.3899 C.ar    1  UNL1        0.0619
     27 C          59.6791   89.4262    7.3771 C.ar    1  UNL1        0.0987
     28 S          60.1305   89.9355    8.7138 S.2     1  UNL1       -0.0618
     29 C          60.5194   88.7544    9.5527 C.ar    1  UNL1        0.1178
     30 C          61.0298   88.8040   10.9624 C.2     1  UNL1        0.2518
     31 N          62.4815   89.0751   11.2254 N.am    1  UNL1       -0.3248
     32 O          60.0885   88.5824   12.1090 O.2     1  UNL1       -0.2697
     33 H          63.0993   89.2205   10.4728 H       1  UNL1        0.1453
     34 H          62.8164   89.1076   12.1506 H       1  UNL1        0.1453
     35 O          60.5707   86.1077    9.1821 O.3     1  UNL1       -0.4740
     36 C          62.8951   85.6664    8.1086 C.3     1  UNL1        0.0523
     37 C          61.9802   85.6072    9.2957 C.3     1  UNL1        0.1891
     38 C          62.4747   85.0474   10.5965 C.ar    1  UNL1        0.0278
     39 C          62.0093   85.6403   11.8934 C.ar    1  UNL1        0.0000
     40 C          62.5038   85.0805   13.1942 C.ar    1  UNL1       -0.0002
     41 C          63.4636   83.9278   13.1981 C.ar    1  UNL1        0.0008
     42 C          63.9289   83.3349   11.9013 C.ar    1  UNL1        0.0112
     43 C          63.4345   83.8947   10.6004 C.ar    1  UNL1        0.0570
     44 CL         63.8998   83.3018    9.3036 Cl      1  UNL1       -0.0825
@<TRIPOS>BOND
     1    37    36    1
     2    37    35    1
     3    35    25    1
     4    25    26   ar
     5    26    27   ar
     6    27     1    1
     7     1     2   ar
     8     2     3   ar
     9     3     4   ar
    10     4     5   ar
    11     5     6   ar
    12     6    10    1
    13    10    11   ar
    14    11    12   ar
    15    12    13   ar
    16    13    14   ar
    17    14    16    1
    18    16    18    1
    19    18    19    1
    20    19    20    1
    21    20    21    1
    22    21    22    1
    23    21    23    1
    24    23    24    1
    25    14    15   ar
    26     6     7   ar
    27     7     8   ar
    28     8     9   ar
    29    27    28   ar
    30    28    29   ar
    31    29    30    1
    32    30    31   am
    33    30    32    2
    34    37    38    1
    35    38    39   ar
    36    39    40   ar
    37    40    41   ar
    38    41    42   ar
    39    42    43   ar
    40    43    44    1
    41    29    25   ar
    42    43    38   ar
    43     9     1   ar
    44     9     4   ar
    45    15    10   ar
    46    24    18    1
    47    16    17    1
    48    31    33    1
    49    31    34    1
