@<TRIPOS>MOLECULE
*****
 33 36 0 0 0
SMALL
GASTEIGER

@<TRIPOS>ATOM
      1 C          63.7927   89.1344   13.0072 C.ar    1  UNL1        0.0992
      2 C          64.3635   90.5132   13.1588 C.ar    1  UNL1        0.0903
      3 C          65.0028   90.6040   14.5128 C.ar    1  UNL1        0.1263
      4 N          64.8269   89.2813   15.1979 N.ar    1  UNL1       -0.1611
      5 N          64.0791   88.3730   14.2674 N.ar    1  UNL1       -0.1979
      6 C          63.6866   86.9527   14.5480 C.ar    1  UNL1        0.2540
      7 N          63.2567   86.5520   15.9280 N.ar    1  UNL1       -0.2087
      8 C          62.8642   85.1317   16.2085 C.ar    1  UNL1        0.1006
      9 C          62.9016   84.1121   15.1089 C.ar    1  UNL1        0.0290
     10 C          62.5090   82.6918   15.3895 C.3     1  UNL1        0.0356
     11 C          63.3314   84.5128   13.7289 C.ar    1  UNL1        0.1322
     12 N          63.7240   85.9331   13.4484 N.ar    1  UNL1       -0.1953
     13 N          63.3688   83.4932   12.6293 N.pl3   1  UNL1       -0.2934
     14 C          64.1825   83.7501   11.3957 C.3     1  UNL1        0.0921
     15 C          64.2198   82.7305   10.2961 C.3     1  UNL1        0.0215
     16 C          63.4436   81.4540   10.4302 C.3     1  UNL1        0.0035
     17 C          62.6300   81.1972   11.6639 C.3     1  UNL1        0.0215
     18 C          62.5926   82.2167   12.7634 C.3     1  UNL1        0.0921
     19 C          64.3054   91.6089   12.1360 C.2     1  UNL1        0.2489
     20 O          63.2182   91.6134   11.1026 O.2     1  UNL1       -0.2700
     21 N          65.3345   92.7002   12.1466 N.am    1  UNL1       -0.2956
     22 H          66.0481   92.6972   12.8249 H       1  UNL1        0.1501
     23 C          65.2764   93.7958   11.1239 C.3     1  UNL1        0.1357
     24 C          66.3890   93.9543   10.1304 C.ar    1  UNL1        0.0776
     25 C          67.4371   92.9303    9.8097 C.ar    1  UNL1        0.1150
     26 N          68.3446   93.5077    8.7643 N.ar    1  UNL1       -0.2226
     27 C          67.8574   94.8884    8.4387 C.ar    1  UNL1        0.1784
     28 N          66.6487   95.1645    9.2831 N.ar    1  UNL1       -0.3090
     29 C          65.8414   96.4288    9.2805 C.3     1  UNL1        0.1318
     30 C          63.0635   88.6092   11.8062 C.3     1  UNL1        0.1878
     31 O          61.5642   88.5681   11.7977 O.3     1  UNL1       -0.3474
     32 C          61.3339   86.1682   10.8295 C.3     1  UNL1        0.0347
     33 C          60.8457   87.5834   10.9235 C.3     1  UNL1        0.1428
@<TRIPOS>BOND
     1    32    33    1
     2    33    31    1
     3    31    30    1
     4    30     1    1
     5     1     2   ar
     6     2    19    1
     7    19    20    2
     8    19    21   am
     9    21    23    1
    10    23    24    1
    11    24    25   ar
    12    25    26   ar
    13    26    27   ar
    14    27    28   ar
    15    28    29    1
    16     2     3   ar
    17     3     4   ar
    18     4     5   ar
    19     5     6    1
    20     6     7   ar
    21     7     8   ar
    22     8     9   ar
    23     9    10    1
    24     9    11   ar
    25    11    13    1
    26    13    14    1
    27    14    15    1
    28    15    16    1
    29    16    17    1
    30    17    18    1
    31    11    12   ar
    32     5     1   ar
    33    12     6   ar
    34    28    24   ar
    35    18    13    1
    36    21    22    1
@<TRIPOS>MOLECULE
*****
 33 36 0 0 0
SMALL
GASTEIGER

@<TRIPOS>ATOM
      1 C          64.6973   90.3291   13.5029 C.ar    1  UNL1        0.0992
      2 C          64.4108   91.4295   12.5247 C.ar    1  UNL1        0.0903
      3 C          63.3539   90.9440   11.5774 C.ar    1  UNL1        0.1263
      4 N          62.9873   89.5436   11.9702 N.ar    1  UNL1       -0.1611
      5 N          63.8176   89.1635   13.1603 N.ar    1  UNL1       -0.1979
      6 C          63.7754   87.8487   13.8812 C.ar    1  UNL1        0.2540
      7 N          63.8917   87.8089   15.3761 N.ar    1  UNL1       -0.2087
      8 C          63.8496   86.4942   16.0968 C.ar    1  UNL1        0.1006
      9 C          63.6911   85.2192   15.3227 C.ar    1  UNL1        0.0290
     10 C          63.6490   83.9044   16.0435 C.3     1  UNL1        0.0356
     11 C          63.5748   85.2590   13.8278 C.ar    1  UNL1        0.1322
     12 N          63.6170   86.5737   13.1070 N.ar    1  UNL1       -0.1953
     13 N          63.4164   83.9840   13.0536 N.pl3   1  UNL1       -0.2934
     14 C          64.2561   83.7368   11.8356 C.3     1  UNL1        0.0921
     15 C          64.0977   82.4619   11.0614 C.3     1  UNL1        0.0215
     16 C          63.0995   81.4340   11.5053 C.3     1  UNL1        0.0035
     17 C          62.2597   81.6812   12.7233 C.3     1  UNL1        0.0215
     18 C          62.4182   82.9562   13.4975 C.3     1  UNL1        0.0921
     19 C          65.0661   92.7785   12.4983 C.2     1  UNL1        0.2489
     20 O          65.5321   93.4111   13.7760 O.2     1  UNL1       -0.2700
     21 N          65.2555   93.4950   11.1941 N.am    1  UNL1       -0.2956
     22 H          64.9497   93.0798   10.3555 H       1  UNL1        0.1501
     23 C          65.9108   94.8439   11.1677 C.3     1  UNL1        0.1357
     24 C          66.4682   95.3820    9.8832 C.ar    1  UNL1        0.0776
     25 C          66.1404   96.7099    9.2676 C.ar    1  UNL1        0.1150
     26 N          66.9209   96.8352    7.9929 N.ar    1  UNL1       -0.2226
     27 C          67.7311   95.5848    7.8206 C.ar    1  UNL1        0.1784
     28 N          67.4514   94.6866    8.9889 N.ar    1  UNL1       -0.3090
     29 C          68.0498   93.3310    9.2220 C.3     1  UNL1        0.1318
     30 C          65.6895   90.3846   14.6266 C.3     1  UNL1        0.1878
     31 O          66.9959   91.0972   14.4391 O.3     1  UNL1       -0.3474
     32 C          68.8758   92.6193   15.3876 C.3     1  UNL1        0.0347
     33 C          67.6531   91.7775   15.6033 C.3     1  UNL1        0.1428
@<TRIPOS>BOND
     1    32    33    1
     2    33    31    1
     3    31    30    1
     4    30     1    1
     5     1     2   ar
     6     2    19    1
     7    19    20    2
     8    19    21   am
     9    21    23    1
    10    23    24    1
    11    24    25   ar
    12    25    26   ar
    13    26    27   ar
    14    27    28   ar
    15    28    29    1
    16     2     3   ar
    17     3     4   ar
    18     4     5   ar
    19     5     6    1
    20     6     7   ar
    21     7     8   ar
    22     8     9   ar
    23     9    10    1
    24     9    11   ar
    25    11    13    1
    26    13    14    1
    27    14    15    1
    28    15    16    1
    29    16    17    1
    30    17    18    1
    31    11    12   ar
    32     5     1   ar
    33    12     6   ar
    34    28    24   ar
    35    18    13    1
    36    21    22    1
@<TRIPOS>MOLECULE
*****
 33 36 0 0 0
SMALL
GASTEIGER

@<TRIPOS>ATOM
      1 C          64.8685   90.7980   13.0961 C.ar    1  UNL1        0.0992
      2 C          65.2662   91.9424   13.9805 C.ar    1  UNL1        0.0903
      3 C          65.0406   91.5280   15.4044 C.ar    1  UNL1        0.1263
      4 N          64.5034   90.1275   15.4000 N.ar    1  UNL1       -0.1611
      5 N          64.3970   89.6763   13.9734 N.ar    1  UNL1       -0.1979
      6 C          63.9054   88.3383   13.5061 C.ar    1  UNL1        0.2540
      7 N          64.2100   87.1064   14.3057 N.ar    1  UNL1       -0.2087
      8 C          63.7184   85.7685   13.8385 C.ar    1  UNL1        0.1006
      9 C          62.9223   85.6626   12.5716 C.ar    1  UNL1        0.0290
     10 C          62.4308   84.3246   12.1043 C.3     1  UNL1        0.0356
     11 C          62.6178   86.8945   11.7719 C.ar    1  UNL1        0.1322
     12 N          63.1093   88.2324   12.2392 N.ar    1  UNL1       -0.1953
     13 N          61.8217   86.7886   10.5050 N.pl3   1  UNL1       -0.2934
     14 C          62.3791   86.0426    9.3292 C.3     1  UNL1        0.0921
     15 C          61.5830   85.9367    8.0623 C.3     1  UNL1        0.0215
     16 C          60.2295   86.5768    7.9713 C.3     1  UNL1        0.0035
     17 C          59.6721   87.3228    9.1471 C.3     1  UNL1        0.0215
     18 C          60.4682   87.4287   10.4140 C.3     1  UNL1        0.0921
     19 C          65.7965   93.2684   13.5216 C.2     1  UNL1        0.2489
     20 O          66.5432   94.1494   14.4787 O.2     1  UNL1       -0.2700
     21 N          65.5801   93.7133   12.1055 N.am    1  UNL1       -0.2956
     22 H          65.0900   93.1350   11.4773 H       1  UNL1        0.1501
     23 C          66.1103   95.0392   11.6466 C.3     1  UNL1        0.1357
     24 C          66.5178   95.2294   10.2156 C.ar    1  UNL1        0.0776
     25 C          66.2883   96.4605    9.3898 C.ar    1  UNL1        0.1150
     26 N          66.8549   96.2139    8.0230 N.ar    1  UNL1       -0.2226
     27 C          67.4345   94.8306    8.0040 C.ar    1  UNL1        0.1784
     28 N          67.2261   94.2221    9.3591 N.ar    1  UNL1       -0.3090
     29 C          67.6515   92.8477    9.7832 C.3     1  UNL1        0.1318
     30 C          64.9312   90.7787   11.5975 C.3     1  UNL1        0.1878
     31 O          64.0184   91.6596   10.7972 O.3     1  UNL1       -0.3474
     32 C          61.5623   90.8127   10.8036 C.3     1  UNL1        0.0347
     33 C          62.8474   91.0651   10.0724 C.3     1  UNL1        0.1428
@<TRIPOS>BOND
     1    32    33    1
     2    33    31    1
     3    31    30    1
     4    30     1    1
     5     1     2   ar
     6     2    19    1
     7    19    20    2
     8    19    21   am
     9    21    23    1
    10    23    24    1
    11    24    25   ar
    12    25    26   ar
    13    26    27   ar
    14    27    28   ar
    15    28    29    1
    16     2     3   ar
    17     3     4   ar
    18     4     5   ar
    19     5     6    1
    20     6     7   ar
    21     7     8   ar
    22     8     9   ar
    23     9    10    1
    24     9    11   ar
    25    11    13    1
    26    13    14    1
    27    14    15    1
    28    15    16    1
    29    16    17    1
    30    17    18    1
    31    11    12   ar
    32     5     1   ar
    33    12     6   ar
    34    28    24   ar
    35    18    13    1
    36    21    22    1
@<TRIPOS>MOLECULE
*****
 33 36 0 0 0
SMALL
GASTEIGER

@<TRIPOS>ATOM
      1 C          64.0341   89.0417   14.8039 C.ar    1  UNL1        0.0992
      2 C          64.1853   90.3399   15.5398 C.ar    1  UNL1        0.0903
      3 C          63.6980   90.1363   16.9439 C.ar    1  UNL1        0.1263
      4 N          63.2457   88.7122   17.0755 N.ar    1  UNL1       -0.1611
      5 N          63.4534   88.0357   15.7530 N.ar    1  UNL1       -0.1979
      6 C          63.1361   86.6044   15.4353 C.ar    1  UNL1        0.2540
      7 N          62.5084   85.7264   16.4769 N.ar    1  UNL1       -0.2087
      8 C          62.1911   84.2952   16.1592 C.ar    1  UNL1        0.1006
      9 C          62.5016   83.7420   14.7999 C.ar    1  UNL1        0.0290
     10 C          62.1843   82.3107   14.4822 C.3     1  UNL1        0.0356
     11 C          63.1293   84.6201   13.7583 C.ar    1  UNL1        0.1322
     12 N          63.4466   86.0513   14.0760 N.ar    1  UNL1       -0.1953
     13 N          63.4398   84.0669   12.3990 N.pl3   1  UNL1       -0.2934
     14 C          64.3217   82.8612   12.2635 C.3     1  UNL1        0.0921
     15 C          64.6321   82.3080   10.9042 C.3     1  UNL1        0.0215
     16 C          64.0607   82.9606    9.6805 C.3     1  UNL1        0.0035
     17 C          63.1788   84.1663    9.8160 C.3     1  UNL1        0.0215
     18 C          62.8683   84.7195   11.1753 C.3     1  UNL1        0.0921
     19 C          64.7284   91.6175   14.9716 C.2     1  UNL1        0.2489
     20 O          65.0235   92.7757   15.8779 O.2     1  UNL1       -0.2700
     21 N          64.9765   91.7368   13.4971 N.am    1  UNL1       -0.2956
     22 H          64.7828   90.9766   12.9023 H       1  UNL1        0.1501
     23 C          65.5195   93.0143   12.9288 C.3     1  UNL1        0.1357
     24 C          66.5131   92.9731   11.8059 C.ar    1  UNL1        0.0776
     25 C          67.6079   91.9621   11.6339 C.ar    1  UNL1        0.1150
     26 N          68.3578   92.2998   10.3795 N.ar    1  UNL1       -0.2226
     27 C          67.7266   93.5194    9.7762 C.ar    1  UNL1        0.1784
     28 N          66.5865   93.9355   10.6577 N.ar    1  UNL1       -0.3090
     29 C          65.6791   95.1082   10.4308 C.3     1  UNL1        0.1318
     30 C          64.3995   88.7931   13.3705 C.3     1  UNL1        0.1878
     31 O          63.5427   89.3471   12.2710 O.3     1  UNL1       -0.3474
     32 C          62.1984   88.7767   10.1222 C.3     1  UNL1        0.0347
     33 C          62.5989   88.4473   11.5297 C.3     1  UNL1        0.1428
@<TRIPOS>BOND
     1    32    33    1
     2    33    31    1
     3    31    30    1
     4    30     1    1
     5     1     2   ar
     6     2    19    1
     7    19    20    2
     8    19    21   am
     9    21    23    1
    10    23    24    1
    11    24    25   ar
    12    25    26   ar
    13    26    27   ar
    14    27    28   ar
    15    28    29    1
    16     2     3   ar
    17     3     4   ar
    18     4     5   ar
    19     5     6    1
    20     6     7   ar
    21     7     8   ar
    22     8     9   ar
    23     9    10    1
    24     9    11   ar
    25    11    13    1
    26    13    14    1
    27    14    15    1
    28    15    16    1
    29    16    17    1
    30    17    18    1
    31    11    12   ar
    32     5     1   ar
    33    12     6   ar
    34    28    24   ar
    35    18    13    1
    36    21    22    1
@<TRIPOS>MOLECULE
*****
 33 36 0 0 0
SMALL
GASTEIGER

@<TRIPOS>ATOM
      1 C          63.8328   88.6771   13.0618 C.ar    1  UNL1        0.0992
      2 C          63.4523   89.7655   12.1024 C.ar    1  UNL1        0.0903
      3 C          62.5498   89.1715   11.0617 C.ar    1  UNL1        0.1263
      4 N          62.3726   87.7160   11.3781 N.ar    1  UNL1       -0.1611
      5 N          63.1656   87.4104   12.6142 N.ar    1  UNL1       -0.1979
      6 C          63.2725   86.0730   13.2849 C.ar    1  UNL1        0.2540
      7 N          63.5049   85.9924   14.7646 N.ar    1  UNL1       -0.2087
      8 C          63.6118   84.6550   15.4352 C.ar    1  UNL1        0.1006
      9 C          63.4863   83.3981   14.6262 C.ar    1  UNL1        0.0290
     10 C          63.5932   82.0606   15.2969 C.3     1  UNL1        0.0356
     11 C          63.2538   83.4787   13.1465 C.ar    1  UNL1        0.1322
     12 N          63.1469   84.8161   12.4759 N.ar    1  UNL1       -0.1953
     13 N          63.1283   82.2218   12.3375 N.pl3   1  UNL1       -0.2934
     14 C          62.5918   80.9725   12.9711 C.3     1  UNL1        0.0921
     15 C          62.4663   79.7156   12.1621 C.3     1  UNL1        0.0215
     16 C          62.8772   79.7080   10.7195 C.3     1  UNL1        0.0035
     17 C          63.4136   80.9573   10.0859 C.3     1  UNL1        0.0215
     18 C          63.5392   82.2142   10.8949 C.3     1  UNL1        0.0921
     19 C          63.8962   91.1967   12.1714 C.2     1  UNL1        0.2489
     20 O          63.7351   91.9713   13.4457 O.2     1  UNL1       -0.2700
     21 N          64.5012   91.8532   10.9660 N.am    1  UNL1       -0.2956
     22 H          64.6069   91.3448   10.1296 H       1  UNL1        0.1501
     23 C          64.9451   93.2843   11.0349 C.3     1  UNL1        0.1357
     24 C          66.2064   93.7124   10.3451 C.ar    1  UNL1        0.0776
     25 C          67.3938   92.8418   10.0585 C.ar    1  UNL1        0.1150
     26 N          68.4229   93.6776    9.3570 N.ar    1  UNL1       -0.2226
     27 C          67.8717   95.0648    9.2100 C.ar    1  UNL1        0.1784
     28 N          66.5018   95.0864    9.8207 N.ar    1  UNL1       -0.3090
     29 C          65.5877   96.2735    9.8940 C.3     1  UNL1        0.1318
     30 C          64.7241   88.8288   14.2587 C.3     1  UNL1        0.1878
     31 O          64.3091   89.7149   15.3955 O.3     1  UNL1       -0.3474
     32 C          63.0311   88.3124   17.1703 C.3     1  UNL1        0.0347
     33 C          63.0513   89.4184   16.1571 C.3     1  UNL1        0.1428
@<TRIPOS>BOND
     1    32    33    1
     2    33    31    1
     3    31    30    1
     4    30     1    1
     5     1     2   ar
     6     2    19    1
     7    19    20    2
     8    19    21   am
     9    21    23    1
    10    23    24    1
    11    24    25   ar
    12    25    26   ar
    13    26    27   ar
    14    27    28   ar
    15    28    29    1
    16     2     3   ar
    17     3     4   ar
    18     4     5   ar
    19     5     6    1
    20     6     7   ar
    21     7     8   ar
    22     8     9   ar
    23     9    10    1
    24     9    11   ar
    25    11    13    1
    26    13    14    1
    27    14    15    1
    28    15    16    1
    29    16    17    1
    30    17    18    1
    31    11    12   ar
    32     5     1   ar
    33    12     6   ar
    34    28    24   ar
    35    18    13    1
    36    21    22    1
@<TRIPOS>MOLECULE
*****
 33 36 0 0 0
SMALL
GASTEIGER

@<TRIPOS>ATOM
      1 C          63.6406   86.1960   14.4043 C.ar    1  UNL1        0.0992
      2 C          63.3110   85.1924   15.4692 C.ar    1  UNL1        0.0903
      3 C          63.2224   85.9183   16.7790 C.ar    1  UNL1        0.1263
      4 N          63.4973   87.3705   16.5234 N.ar    1  UNL1       -0.1611
      5 N          63.7557   87.5422   15.0559 N.ar    1  UNL1       -0.1979
      6 C          64.0735   88.8335   14.3617 C.ar    1  UNL1        0.2540
      7 N          63.2178   89.3030   13.2228 N.ar    1  UNL1       -0.2087
      8 C          63.5356   90.5942   12.5287 C.ar    1  UNL1        0.1006
      9 C          64.7091   91.4158   12.9735 C.ar    1  UNL1        0.0290
     10 C          65.0269   92.7070   12.2793 C.3     1  UNL1        0.0356
     11 C          65.5648   90.9462   14.1124 C.ar    1  UNL1        0.1322
     12 N          65.2470   89.6550   14.8065 N.ar    1  UNL1       -0.1953
     13 N          66.7384   91.7678   14.5573 N.pl3   1  UNL1       -0.2934
     14 C          66.6124   92.6731   15.7466 C.3     1  UNL1        0.0921
     15 C          67.7859   93.4947   16.1914 C.3     1  UNL1        0.0215
     16 C          69.0854   93.4109   15.4469 C.3     1  UNL1        0.0035
     17 C          69.2113   92.5056   14.2576 C.3     1  UNL1        0.0215
     18 C          68.0378   91.6841   13.8128 C.3     1  UNL1        0.0921
     19 C          63.1059   83.7211   15.2610 C.2     1  UNL1        0.2489
     20 O          64.1763   82.7503   15.6634 O.2     1  UNL1       -0.2700
     21 N          61.8305   83.2206   14.6505 N.am    1  UNL1       -0.2956
     22 H          61.1280   83.8577   14.3864 H       1  UNL1        0.1501
     23 C          61.6254   81.7494   14.4422 C.3     1  UNL1        0.1357
     24 C          62.1461   81.0878   13.2008 C.ar    1  UNL1        0.0776
     25 C          62.2988   79.6110   12.9866 C.ar    1  UNL1        0.1150
     26 N          62.8525   79.3973   11.6091 N.ar    1  UNL1       -0.2226
     27 C          63.0420   80.7419   10.9719 C.ar    1  UNL1        0.1784
     28 N          62.6054   81.7867   11.9556 N.ar    1  UNL1       -0.3090
     29 C          62.6247   83.2700   11.7332 C.3     1  UNL1        0.1318
     30 C          63.8230   85.9046   12.9443 C.3     1  UNL1        0.1878
     31 O          63.0891   86.7179   11.9197 O.3     1  UNL1       -0.3474
     32 C          60.7559   87.2202   10.8931 C.3     1  UNL1        0.0347
     33 C          61.7771   86.2339   11.3771 C.3     1  UNL1        0.1428
@<TRIPOS>BOND
     1    32    33    1
     2    33    31    1
     3    31    30    1
     4    30     1    1
     5     1     2   ar
     6     2    19    1
     7    19    20    2
     8    19    21   am
     9    21    23    1
    10    23    24    1
    11    24    25   ar
    12    25    26   ar
    13    26    27   ar
    14    27    28   ar
    15    28    29    1
    16     2     3   ar
    17     3     4   ar
    18     4     5   ar
    19     5     6    1
    20     6     7   ar
    21     7     8   ar
    22     8     9   ar
    23     9    10    1
    24     9    11   ar
    25    11    13    1
    26    13    14    1
    27    14    15    1
    28    15    16    1
    29    16    17    1
    30    17    18    1
    31    11    12   ar
    32     5     1   ar
    33    12     6   ar
    34    28    24   ar
    35    18    13    1
    36    21    22    1
@<TRIPOS>MOLECULE
*****
 33 36 0 0 0
SMALL
GASTEIGER

@<TRIPOS>ATOM
      1 C          63.7497   88.4002   14.7020 C.ar    1  UNL1        0.0992
      2 C          63.6934   89.2834   15.9131 C.ar    1  UNL1        0.0903
      3 C          63.1334   88.4784   17.0483 C.ar    1  UNL1        0.1263
      4 N          62.8437   87.0977   16.5386 N.ar    1  UNL1       -0.1611
      5 N          63.2245   87.0494   15.0886 N.ar    1  UNL1       -0.1979
      6 C          63.1018   85.8592   14.1839 C.ar    1  UNL1        0.2540
      7 N          63.2683   84.4754   14.7383 N.ar    1  UNL1       -0.2087
      8 C          63.1455   83.2852   13.8337 C.ar    1  UNL1        0.1006
      9 C          62.8562   83.4789   12.3746 C.ar    1  UNL1        0.0290
     10 C          62.7334   82.2886   11.4699 C.3     1  UNL1        0.0356
     11 C          62.6897   84.8626   11.8202 C.ar    1  UNL1        0.1322
     12 N          62.8125   86.0528   12.7249 N.ar    1  UNL1       -0.1953
     13 N          62.4004   85.0563   10.3612 N.pl3   1  UNL1       -0.2934
     14 C          63.3238   84.4779    9.3303 C.3     1  UNL1        0.0921
     15 C          63.0345   84.6715    7.8712 C.3     1  UNL1        0.0215
     16 C          61.8218   85.4435    7.4431 C.3     1  UNL1        0.0035
     17 C          60.8984   86.0219    8.4740 C.3     1  UNL1        0.0215
     18 C          61.1877   85.8283    9.9330 C.3     1  UNL1        0.0921
     19 C          64.1219   90.7194   15.9778 C.2     1  UNL1        0.2489
     20 O          63.3122   91.7091   16.7620 O.2     1  UNL1       -0.2700
     21 N          65.3601   91.1659   15.2584 N.am    1  UNL1       -0.2956
     22 H          65.8915   90.5163   14.7437 H       1  UNL1        0.1501
     23 C          65.7886   92.6018   15.3230 C.3     1  UNL1        0.1357
     24 C          67.2476   92.9501   15.3190 C.ar    1  UNL1        0.0776
     25 C          67.9564   93.7898   16.3400 C.ar    1  UNL1        0.1150
     26 N          69.4007   93.8785   15.9453 N.ar    1  UNL1       -0.2226
     27 C          69.5847   93.0937   14.6803 C.ar    1  UNL1        0.1784
     28 N          68.2539   92.5199   14.2932 N.ar    1  UNL1       -0.3090
     29 C          67.9780   91.6659   13.0913 C.3     1  UNL1        0.1318
     30 C          64.2443   88.7981   13.3430 C.3     1  UNL1        0.1878
     31 O          63.4906   89.8152   12.5386 O.3     1  UNL1       -0.3474
     32 C          62.2830   90.2013   10.2708 C.3     1  UNL1        0.0347
     33 C          62.5056   89.3693   11.4989 C.3     1  UNL1        0.1428
@<TRIPOS>BOND
     1    32    33    1
     2    33    31    1
     3    31    30    1
     4    30     1    1
     5     1     2   ar
     6     2    19    1
     7    19    20    2
     8    19    21   am
     9    21    23    1
    10    23    24    1
    11    24    25   ar
    12    25    26   ar
    13    26    27   ar
    14    27    28   ar
    15    28    29    1
    16     2     3   ar
    17     3     4   ar
    18     4     5   ar
    19     5     6    1
    20     6     7   ar
    21     7     8   ar
    22     8     9   ar
    23     9    10    1
    24     9    11   ar
    25    11    13    1
    26    13    14    1
    27    14    15    1
    28    15    16    1
    29    16    17    1
    30    17    18    1
    31    11    12   ar
    32     5     1   ar
    33    12     6   ar
    34    28    24   ar
    35    18    13    1
    36    21    22    1
@<TRIPOS>MOLECULE
*****
 33 36 0 0 0
SMALL
GASTEIGER

@<TRIPOS>ATOM
      1 C          62.5805   93.0128    0.4507 C.ar    1  UNL1        0.0992
      2 C          63.2661   92.8295    1.7721 C.ar    1  UNL1        0.0903
      3 C          64.5241   93.6465    1.7589 C.ar    1  UNL1        0.1263
      4 N          64.6158   94.3347    0.4292 N.ar    1  UNL1       -0.1611
      5 N          63.4146   93.9430   -0.3793 N.ar    1  UNL1       -0.1979
      6 C          63.1023   94.4012   -1.7731 C.ar    1  UNL1        0.2540
      7 N          61.7056   94.8139   -2.1317 N.ar    1  UNL1       -0.2087
      8 C          61.3934   95.2720   -3.5255 C.ar    1  UNL1        0.1006
      9 C          62.4780   95.3174   -4.5606 C.ar    1  UNL1        0.0290
     10 C          62.1657   95.7756   -5.9545 C.3     1  UNL1        0.0356
     11 C          63.8748   94.9047   -4.2021 C.ar    1  UNL1        0.1322
     12 N          64.1869   94.4466   -2.8083 N.ar    1  UNL1       -0.1953
     13 N          64.9594   94.9501   -5.2372 N.pl3   1  UNL1       -0.2934
     14 C          65.2534   93.7372   -6.0692 C.3     1  UNL1        0.0921
     15 C          66.3380   93.7826   -7.1044 C.3     1  UNL1        0.0215
     16 C          67.1286   95.0410   -7.3076 C.3     1  UNL1        0.0035
     17 C          66.8346   96.2540   -6.4756 C.3     1  UNL1        0.0215
     18 C          65.7500   96.2085   -5.4404 C.3     1  UNL1        0.0921
     19 C          62.7794   91.9787    2.9075 C.2     1  UNL1        0.2489
     20 O          63.6555   90.8945    3.4615 O.2     1  UNL1       -0.2700
     21 N          61.4164   92.2120    3.4889 N.am    1  UNL1       -0.2956
     22 H          60.8414   92.9235    3.1253 H       1  UNL1        0.1501
     23 C          60.9296   91.3612    4.6242 C.3     1  UNL1        0.1357
     24 C          59.4600   91.2535    4.9043 C.ar    1  UNL1        0.0776
     25 C          58.3813   92.0958    4.2902 C.ar    1  UNL1        0.1150
     26 N          57.0657   91.6475    4.8540 N.ar    1  UNL1       -0.2226
     27 C          57.3311   90.5282    5.8166 C.ar    1  UNL1        0.1784
     28 N          58.8108   90.2847    5.8477 N.ar    1  UNL1       -0.3090
     29 C          59.5174   89.2534    6.6767 C.3     1  UNL1        0.1318
     30 C          61.2876   92.3773    0.0326 C.3     1  UNL1        0.1878
     31 O          60.0117   92.7430    0.7314 O.3     1  UNL1       -0.3474
     32 C          60.1956   95.1543    1.6808 C.3     1  UNL1        0.0347
     33 C          59.5498   94.1699    0.7514 C.3     1  UNL1        0.1428
@<TRIPOS>BOND
     1    32    33    1
     2    33    31    1
     3    31    30    1
     4    30     1    1
     5     1     2   ar
     6     2    19    1
     7    19    20    2
     8    19    21   am
     9    21    23    1
    10    23    24    1
    11    24    25   ar
    12    25    26   ar
    13    26    27   ar
    14    27    28   ar
    15    28    29    1
    16     2     3   ar
    17     3     4   ar
    18     4     5   ar
    19     5     6    1
    20     6     7   ar
    21     7     8   ar
    22     8     9   ar
    23     9    10    1
    24     9    11   ar
    25    11    13    1
    26    13    14    1
    27    14    15    1
    28    15    16    1
    29    16    17    1
    30    17    18    1
    31    11    12   ar
    32     5     1   ar
    33    12     6   ar
    34    28    24   ar
    35    18    13    1
    36    21    22    1
@<TRIPOS>MOLECULE
*****
 33 36 0 0 0
SMALL
GASTEIGER

@<TRIPOS>ATOM
      1 C          61.9928   92.8008    0.2632 C.ar    1  UNL1        0.0992
      2 C          62.8443   92.7236    1.4956 C.ar    1  UNL1        0.0903
      3 C          64.1311   93.4419    1.2157 C.ar    1  UNL1        0.1263
      4 N          64.0748   93.9630   -0.1897 N.ar    1  UNL1       -0.1611
      5 N          62.7532   93.5668   -0.7784 N.ar    1  UNL1       -0.1979
      6 C          62.2760   93.8814   -2.1653 C.ar    1  UNL1        0.2540
      7 N          63.2673   94.0676   -3.2754 N.ar    1  UNL1       -0.2087
      8 C          62.7900   94.3822   -4.6622 C.ar    1  UNL1        0.1006
      9 C          61.3213   94.5105   -4.9388 C.ar    1  UNL1        0.0290
     10 C          60.8441   94.8251   -6.3257 C.3     1  UNL1        0.0356
     11 C          60.3300   94.3243   -3.8287 C.ar    1  UNL1        0.1322
     12 N          60.8073   94.0097   -2.4419 N.ar    1  UNL1       -0.1953
     13 N          58.8613   94.4526   -4.1053 N.pl3   1  UNL1       -0.2934
     14 C          58.1609   95.7542   -3.8499 C.3     1  UNL1        0.0921
     15 C          56.6922   95.8825   -4.1265 C.3     1  UNL1        0.0215
     16 C          55.9240   94.7093   -4.6586 C.3     1  UNL1        0.0035
     17 C          56.6243   93.4077   -4.9140 C.3     1  UNL1        0.0215
     18 C          58.0930   93.2794   -4.6374 C.3     1  UNL1        0.0921
     19 C          62.4741   92.0469    2.7821 C.2     1  UNL1        0.2489
     20 O          63.4702   91.1708    3.4824 O.2     1  UNL1       -0.2700
     21 N          61.1080   92.2463    3.3684 N.am    1  UNL1       -0.2956
     22 H          60.4542   92.8214    2.9088 H       1  UNL1        0.1501
     23 C          60.7377   91.5697    4.6548 C.3     1  UNL1        0.1357
     24 C          59.2967   91.3017    4.9737 C.ar    1  UNL1        0.0776
     25 C          58.1172   92.0360    4.4084 C.ar    1  UNL1        0.1150
     26 N          56.8738   91.4404    4.9991 N.ar    1  UNL1       -0.2226
     27 C          57.2847   90.3380    5.9295 C.ar    1  UNL1        0.1784
     28 N          58.7822   90.2522    5.9137 N.ar    1  UNL1       -0.3090
     29 C          59.6182   89.2864    6.7001 C.3     1  UNL1        0.1318
     30 C          60.6216   92.2149    0.1009 C.3     1  UNL1        0.1878
     31 O          59.4435   92.8692    0.7595 O.3     1  UNL1       -0.3474
     32 C          57.5344   92.7764   -1.0003 C.3     1  UNL1        0.0347
     33 C          58.4101   93.5672   -0.0741 C.3     1  UNL1        0.1428
@<TRIPOS>BOND
     1    32    33    1
     2    33    31    1
     3    31    30    1
     4    30     1    1
     5     1     2   ar
     6     2    19    1
     7    19    20    2
     8    19    21   am
     9    21    23    1
    10    23    24    1
    11    24    25   ar
    12    25    26   ar
    13    26    27   ar
    14    27    28   ar
    15    28    29    1
    16     2     3   ar
    17     3     4   ar
    18     4     5   ar
    19     5     6    1
    20     6     7   ar
    21     7     8   ar
    22     8     9   ar
    23     9    10    1
    24     9    11   ar
    25    11    13    1
    26    13    14    1
    27    14    15    1
    28    15    16    1
    29    16    17    1
    30    17    18    1
    31    11    12   ar
    32     5     1   ar
    33    12     6   ar
    34    28    24   ar
    35    18    13    1
    36    21    22    1
