@<TRIPOS>MOLECULE
*****
 35 38 0 0 0
SMALL
GASTEIGER

@<TRIPOS>ATOM
      1 N          65.7113   92.5473   13.0013 N.3     1  UNL1       -0.1591
      2 C          66.1166   92.5291   14.4454 C.3     1  UNL1        0.0991
      3 C          65.3478   91.6984   15.4296 C.3     1  UNL1        0.0627
      4 C          64.1738   90.8858   14.9698 C.3     1  UNL1        0.1688
      5 C          63.7685   90.9040   13.5258 C.3     1  UNL1        0.0627
      6 C          64.5372   91.7348   12.5415 C.3     1  UNL1        0.0991
      7 S          66.4800   93.3781   12.0169 S.O2    1  UNL1        0.0459
      8 O          66.0196   92.4848   10.9035 O.2     1  UNL1       -0.1572
      9 O          66.9404   94.2715   13.1304 O.2     1  UNL1       -0.1572
     10 C          67.2487   94.2089   11.0326 C.3     1  UNL1        0.1958
     11 C          65.5230   95.2327   11.0910 C.3     1  UNL1        0.0310
     12 C          66.5188   95.0059    9.9924 C.3     1  UNL1        0.1509
     13 N          65.5807   95.8503    9.1818 N.am    1  UNL1       -0.2825
     14 C          66.1494   95.9787    7.7997 C.2     1  UNL1        0.3068
     15 O          65.5362   96.7388    6.6612 O.2     1  UNL1       -0.2524
     16 N          67.4389   95.2137    7.7561 N.am    1  UNL1       -0.2383
     17 C          67.6672   94.6124    9.1112 C.2     1  UNL1        0.2469
     18 O          68.8383   93.7663    9.5144 O.2     1  UNL1       -0.2729
     19 H          64.7395   96.2500    9.5009 H       1  UNL1        0.1514
     20 H          68.0314   95.1223    6.9752 H       1  UNL1        0.1591
     21 O          63.4051   90.0550   15.9542 O.3     1  UNL1       -0.4791
     22 C          63.5231   88.5599   15.9274 C.ar    1  UNL1        0.1386
     23 C          64.2583   87.8855   14.8073 C.ar    1  UNL1        0.0400
     24 C          64.3762   86.3904   14.7805 C.ar    1  UNL1        0.0400
     25 C          63.7591   85.5697   15.8739 C.ar    1  UNL1        0.1393
     26 C          63.0239   86.2441   16.9940 C.ar    1  UNL1        0.0400
     27 C          62.9059   87.7391   17.0208 C.ar    1  UNL1        0.0400
     28 O          63.8771   84.0746   15.8471 O.3     1  UNL1       -0.4690
     29 C          62.8334   83.2522   15.1511 C.3     1  UNL1        0.2508
     30 C          63.0620   82.7847   13.7442 C.ar    1  UNL1        0.1026
     31 C          62.6400   81.4048   13.3346 C.ar    1  UNL1        0.0185
     32 C          62.8686   80.9373   11.9278 C.ar    1  UNL1        0.0029
     33 C          63.5191   81.8497   10.9306 C.ar    1  UNL1        0.0207
     34 C          63.9410   83.2296   11.3403 C.ar    1  UNL1        0.0986
     35 N          63.7125   83.6971   12.7471 N.ar    1  UNL1       -0.2445
@<TRIPOS>BOND
     1    12    11    1
     2    12    10    1
     3    10     7    1
     4     7     8    2
     5     7     9    2
     6     7     1    1
     7     1     2    1
     8     2     3    1
     9     3     4    1
    10     4    21    1
    11    21    22    1
    12    22    23   ar
    13    23    24   ar
    14    24    25   ar
    15    25    28    1
    16    28    29    1
    17    29    30    1
    18    30    31   ar
    19    31    32   ar
    20    32    33   ar
    21    33    34   ar
    22    34    35   ar
    23    25    26   ar
    24    26    27   ar
    25     4     5    1
    26     5     6    1
    27    12    13    1
    28    13    14   am
    29    14    15    2
    30    14    16   am
    31    16    17   am
    32    17    18    2
    33    17    12    1
    34     6     1    1
    35    27    22   ar
    36    35    30   ar
    37    13    19    1
    38    16    20    1
@<TRIPOS>MOLECULE
*****
 35 38 0 0 0
SMALL
GASTEIGER

@<TRIPOS>ATOM
      1 N          65.4463   92.6935   13.5976 N.3     1  UNL1       -0.1591
      2 C          65.6691   92.6509   15.0803 C.3     1  UNL1        0.0991
      3 C          64.9070   91.6737   15.9254 C.3     1  UNL1        0.0627
      4 C          63.9221   90.7391   15.2878 C.3     1  UNL1        0.1688
      5 C          63.6993   90.7818   13.8051 C.3     1  UNL1        0.0627
      6 C          64.4614   91.7589   12.9600 C.3     1  UNL1        0.0991
      7 S          66.2084   93.6707   12.7524 S.O2    1  UNL1        0.0459
      8 O          67.1948   93.8643   13.8658 O.2     1  UNL1       -0.1572
      9 O          65.2221   93.4771   11.6390 O.2     1  UNL1       -0.1572
     10 C          66.9706   94.6479   11.9073 C.3     1  UNL1        0.1958
     11 C          67.2161   93.2890   10.4503 C.3     1  UNL1        0.0310
     12 C          66.7296   94.7077   10.4280 C.3     1  UNL1        0.1509
     13 N          66.5903   94.4709    8.9534 N.am    1  UNL1       -0.2825
     14 C          66.0681   95.7309    8.3289 C.2     1  UNL1        0.3068
     15 O          65.7799   95.9389    6.8716 O.2     1  UNL1       -0.2524
     16 N          65.8846   96.7463    9.4176 N.am    1  UNL1       -0.2383
     17 C          66.2935   96.1140   10.7149 C.2     1  UNL1        0.2469
     18 O          66.2702   96.7723   12.0625 O.2     1  UNL1       -0.2729
     19 H          66.8041   93.6353    8.4787 H       1  UNL1        0.1514
     20 H          65.5540   97.6662    9.3011 H       1  UNL1        0.1591
     21 O          63.1600   89.7619   16.1330 O.3     1  UNL1       -0.4791
     22 C          63.4104   88.2901   15.9882 C.ar    1  UNL1        0.1386
     23 C          64.2593   87.7811   14.8612 C.ar    1  UNL1        0.0400
     24 C          64.5097   86.3092   14.7164 C.ar    1  UNL1        0.0400
     25 C          63.9111   85.3464   15.6986 C.ar    1  UNL1        0.1393
     26 C          63.0622   85.8554   16.8256 C.ar    1  UNL1        0.0400
     27 C          62.8118   87.3273   16.9704 C.ar    1  UNL1        0.0400
     28 O          64.1615   83.8746   15.5538 O.3     1  UNL1       -0.4690
     29 C          63.1582   83.0086   14.8514 C.3     1  UNL1        0.2508
     30 C          63.3566   82.6501   13.4084 C.ar    1  UNL1        0.1026
     31 C          64.2184   83.5112   12.5333 C.ar    1  UNL1        0.0185
     32 C          64.4168   83.1526   11.0904 C.ar    1  UNL1        0.0029
     33 C          63.7534   81.9330   10.5226 C.ar    1  UNL1        0.0207
     34 C          62.8916   81.0719   11.3977 C.ar    1  UNL1        0.0986
     35 N          62.6932   81.4305   12.8406 N.ar    1  UNL1       -0.2445
@<TRIPOS>BOND
     1    12    11    1
     2    12    10    1
     3    10     7    1
     4     7     8    2
     5     7     9    2
     6     7     1    1
     7     1     2    1
     8     2     3    1
     9     3     4    1
    10     4    21    1
    11    21    22    1
    12    22    23   ar
    13    23    24   ar
    14    24    25   ar
    15    25    28    1
    16    28    29    1
    17    29    30    1
    18    30    31   ar
    19    31    32   ar
    20    32    33   ar
    21    33    34   ar
    22    34    35   ar
    23    25    26   ar
    24    26    27   ar
    25     4     5    1
    26     5     6    1
    27    12    13    1
    28    13    14   am
    29    14    15    2
    30    14    16   am
    31    16    17   am
    32    17    18    2
    33    17    12    1
    34     6     1    1
    35    27    22   ar
    36    35    30   ar
    37    13    19    1
    38    16    20    1
@<TRIPOS>MOLECULE
*****
 35 38 0 0 0
SMALL
GASTEIGER

@<TRIPOS>ATOM
      1 N          63.6144   85.8078   15.1623 N.3     1  UNL1       -0.1591
      2 C          64.2019   86.7556   14.1592 C.3     1  UNL1        0.0991
      3 C          64.2574   88.2245   14.4582 C.3     1  UNL1        0.0627
      4 C          63.7253   88.7454   15.7603 C.3     1  UNL1        0.1688
      5 C          63.1377   87.7975   16.7634 C.3     1  UNL1        0.0627
      6 C          63.0823   86.3287   16.4644 C.3     1  UNL1        0.0991
      7 S          63.5589   84.3389   14.8633 S.O2    1  UNL1        0.0459
      8 O          62.3104   84.5497   14.0592 O.2     1  UNL1       -0.1572
      9 O          64.8074   84.1280   15.6674 O.2     1  UNL1       -0.1572
     10 C          63.5034   82.8700   14.5643 C.3     1  UNL1        0.1958
     11 C          64.6222   83.4915   13.0177 C.3     1  UNL1        0.0310
     12 C          63.6142   82.3882   13.1481 C.3     1  UNL1        0.1509
     13 N          63.9358   82.1371   11.7047 N.am    1  UNL1       -0.2825
     14 C          63.1034   80.9793   11.2390 C.2     1  UNL1        0.3068
     15 O          63.1065   80.3894    9.8599 O.2     1  UNL1       -0.2524
     16 N          62.2674   80.5150   12.3947 N.am    1  UNL1       -0.2383
     17 C          62.5831   81.3857   13.5745 C.2     1  UNL1        0.2469
     18 O          61.9746   81.2737   14.9409 O.2     1  UNL1       -0.2729
     19 H          64.5800   82.6432   11.1588 H       1  UNL1        0.1514
     20 H          61.6244   79.7696   12.3812 H       1  UNL1        0.1591
     21 O          63.7808   90.2143   16.0593 O.3     1  UNL1       -0.4791
     22 C          64.5615   91.1325   15.1663 C.ar    1  UNL1        0.1386
     23 C          65.5731   92.0703   15.7553 C.ar    1  UNL1        0.0400
     24 C          66.3538   92.9886   14.8622 C.ar    1  UNL1        0.0400
     25 C          66.1228   92.9689   13.3803 C.ar    1  UNL1        0.1393
     26 C          65.1111   92.0310   12.7913 C.ar    1  UNL1        0.0400
     27 C          64.3305   91.1128   13.6843 C.ar    1  UNL1        0.0400
     28 O          66.9035   93.8870   12.4873 O.3     1  UNL1       -0.4690
     29 C          66.2742   95.1481   11.9740 C.3     1  UNL1        0.2508
     30 C          66.3275   95.4709   10.5100 C.ar    1  UNL1        0.1026
     31 C          67.2753   94.7313    9.6130 C.ar    1  UNL1        0.0185
     32 C          67.3286   95.0540    8.1491 C.ar    1  UNL1        0.0029
     33 C          66.4341   96.1163    7.5823 C.ar    1  UNL1        0.0207
     34 C          65.4863   96.8559    8.4793 C.ar    1  UNL1        0.0986
     35 N          65.4330   96.5332    9.9432 N.ar    1  UNL1       -0.2445
@<TRIPOS>BOND
     1    12    11    1
     2    12    10    1
     3    10     7    1
     4     7     8    2
     5     7     9    2
     6     7     1    1
     7     1     2    1
     8     2     3    1
     9     3     4    1
    10     4    21    1
    11    21    22    1
    12    22    23   ar
    13    23    24   ar
    14    24    25   ar
    15    25    28    1
    16    28    29    1
    17    29    30    1
    18    30    31   ar
    19    31    32   ar
    20    32    33   ar
    21    33    34   ar
    22    34    35   ar
    23    25    26   ar
    24    26    27   ar
    25     4     5    1
    26     5     6    1
    27    12    13    1
    28    13    14   am
    29    14    15    2
    30    14    16   am
    31    16    17   am
    32    17    18    2
    33    17    12    1
    34     6     1    1
    35    27    22   ar
    36    35    30   ar
    37    13    19    1
    38    16    20    1
@<TRIPOS>MOLECULE
*****
 35 38 0 0 0
SMALL
GASTEIGER

@<TRIPOS>ATOM
      1 N          63.5364   85.7854   15.3487 N.3     1  UNL1       -0.1591
      2 C          62.8782   86.2192   16.6248 C.3     1  UNL1        0.0991
      3 C          62.8632   87.6701   17.0053 C.3     1  UNL1        0.0627
      4 C          63.5063   88.6870   16.1096 C.3     1  UNL1        0.1688
      5 C          64.1645   88.2531   14.8335 C.3     1  UNL1        0.0627
      6 C          64.1795   86.8023   14.4530 C.3     1  UNL1        0.0991
      7 S          63.5514   84.3344   14.9682 S.O2    1  UNL1        0.0459
      8 O          65.0430   84.3088   15.1250 O.2     1  UNL1       -0.1572
      9 O          62.0599   84.3601   14.8113 O.2     1  UNL1       -0.1572
     10 C          63.5665   82.8836   14.5877 C.3     1  UNL1        0.1958
     11 C          64.4879   83.7123   13.0084 C.3     1  UNL1        0.0310
     12 C          63.6317   82.4879   13.1423 C.3     1  UNL1        0.1509
     13 N          63.8759   82.3483   11.6689 N.am    1  UNL1       -0.2825
     14 C          63.1570   81.1202   11.1943 C.2     1  UNL1        0.3068
     15 O          63.1311   80.6024    9.7868 O.2     1  UNL1       -0.2524
     16 N          62.4685   80.5010   12.3744 N.am    1  UNL1       -0.2383
     17 C          62.7619   81.3463   13.5783 C.2     1  UNL1        0.2469
     18 O          62.2716   81.0942   14.9733 O.2     1  UNL1       -0.2729
     19 H          64.4136   82.9559   11.1113 H       1  UNL1        0.1514
     20 H          61.9203   79.6834   12.3611 H       1  UNL1        0.1591
     21 O          63.4913   90.1379   16.4901 O.3     1  UNL1       -0.4791
     22 C          64.3145   91.1248   15.7165 C.ar    1  UNL1        0.1386
     23 C          64.2476   91.1459   14.2182 C.ar    1  UNL1        0.0400
     24 C          65.0709   92.1328   13.4446 C.ar    1  UNL1        0.0400
     25 C          65.9609   93.0985   14.1693 C.ar    1  UNL1        0.1393
     26 C          66.0277   93.0773   15.6677 C.ar    1  UNL1        0.0400
     27 C          65.2046   92.0905   16.4413 C.ar    1  UNL1        0.0400
     28 O          66.7841   94.0853   13.3957 O.3     1  UNL1       -0.4690
     29 C          66.3612   94.4971   12.0167 C.3     1  UNL1        0.2508
     30 C          67.0697   93.9406   10.8174 C.ar    1  UNL1        0.1026
     31 C          67.1552   94.7472    9.5556 C.ar    1  UNL1        0.0185
     32 C          67.8637   94.1907    8.3563 C.ar    1  UNL1        0.0029
     33 C          68.4867   92.8277    8.4188 C.ar    1  UNL1        0.0207
     34 C          68.4012   92.0211    9.6806 C.ar    1  UNL1        0.0986
     35 N          67.6927   92.5775   10.8799 N.ar    1  UNL1       -0.2445
@<TRIPOS>BOND
     1    12    11    1
     2    12    10    1
     3    10     7    1
     4     7     8    2
     5     7     9    2
     6     7     1    1
     7     1     2    1
     8     2     3    1
     9     3     4    1
    10     4    21    1
    11    21    22    1
    12    22    23   ar
    13    23    24   ar
    14    24    25   ar
    15    25    28    1
    16    28    29    1
    17    29    30    1
    18    30    31   ar
    19    31    32   ar
    20    32    33   ar
    21    33    34   ar
    22    34    35   ar
    23    25    26   ar
    24    26    27   ar
    25     4     5    1
    26     5     6    1
    27    12    13    1
    28    13    14   am
    29    14    15    2
    30    14    16   am
    31    16    17   am
    32    17    18    2
    33    17    12    1
    34     6     1    1
    35    27    22   ar
    36    35    30   ar
    37    13    19    1
    38    16    20    1
@<TRIPOS>MOLECULE
*****
 35 38 0 0 0
SMALL
GASTEIGER

@<TRIPOS>ATOM
      1 N          63.2743   85.9060   12.7961 N.3     1  UNL1       -0.1591
      2 C          62.4621   86.1538   11.5596 C.3     1  UNL1        0.0991
      3 C          62.2225   87.5576   11.0886 C.3     1  UNL1        0.0627
      4 C          62.7949   88.7135   11.8541 C.3     1  UNL1        0.1688
      5 C          63.6070   88.4657   13.0906 C.3     1  UNL1        0.0627
      6 C          63.8467   87.0620   13.5616 C.3     1  UNL1        0.0991
      7 S          63.5140   84.5021   13.2671 S.O2    1  UNL1        0.0459
      8 O          64.5438   85.0031   14.2359 O.2     1  UNL1       -0.1572
      9 O          62.4842   84.0012   12.2984 O.2     1  UNL1       -0.1572
     10 C          63.7538   83.0984   13.7382 C.3     1  UNL1        0.1958
     11 C          62.2093   83.3438   14.9968 C.3     1  UNL1        0.0310
     12 C          62.5922   82.2152   14.0859 C.3     1  UNL1        0.1509
     13 N          61.3506   81.5680   14.6240 N.am    1  UNL1       -0.2825
     14 C          61.2091   80.2241   13.9729 C.2     1  UNL1        0.3068
     15 O          60.1069   79.2368   14.2191 O.2     1  UNL1       -0.2524
     16 N          62.3632   80.0407   13.0324 N.am    1  UNL1       -0.2383
     17 C          63.2180   81.2713   13.1022 C.2     1  UNL1        0.2469
     18 O          64.4775   81.5152   12.3249 O.2     1  UNL1       -0.2729
     19 H          60.7365   81.9570   15.2879 H       1  UNL1        0.1514
     20 H          62.5302   79.2513   12.4684 H       1  UNL1        0.1591
     21 O          62.5552   90.1174   11.3830 O.3     1  UNL1       -0.4791
     22 C          63.6269   91.1549   11.5411 C.ar    1  UNL1        0.1386
     23 C          64.2315   91.4091   12.8901 C.ar    1  UNL1        0.0400
     24 C          65.3032   92.4466   13.0482 C.ar    1  UNL1        0.0400
     25 C          65.7704   93.2298   11.8573 C.ar    1  UNL1        0.1393
     26 C          65.1658   92.9756   10.5083 C.ar    1  UNL1        0.0400
     27 C          64.0941   91.9381   10.3502 C.ar    1  UNL1        0.0400
     28 O          66.8421   94.2673   12.0154 O.3     1  UNL1       -0.4690
     29 C          66.5611   95.6965   11.6572 C.3     1  UNL1        0.2508
     30 C          66.3221   96.0781   10.2263 C.ar    1  UNL1        0.1026
     31 C          67.4610   96.0791    9.2501 C.ar    1  UNL1        0.0185
     32 C          67.2220   96.4606    7.8193 C.ar    1  UNL1        0.0029
     33 C          65.8442   96.8411    7.3646 C.ar    1  UNL1        0.0207
     34 C          64.7053   96.8400    8.3408 C.ar    1  UNL1        0.0986
     35 N          64.9442   96.4585    9.7716 N.ar    1  UNL1       -0.2445
@<TRIPOS>BOND
     1    12    11    1
     2    12    10    1
     3    10     7    1
     4     7     8    2
     5     7     9    2
     6     7     1    1
     7     1     2    1
     8     2     3    1
     9     3     4    1
    10     4    21    1
    11    21    22    1
    12    22    23   ar
    13    23    24   ar
    14    24    25   ar
    15    25    28    1
    16    28    29    1
    17    29    30    1
    18    30    31   ar
    19    31    32   ar
    20    32    33   ar
    21    33    34   ar
    22    34    35   ar
    23    25    26   ar
    24    26    27   ar
    25     4     5    1
    26     5     6    1
    27    12    13    1
    28    13    14   am
    29    14    15    2
    30    14    16   am
    31    16    17   am
    32    17    18    2
    33    17    12    1
    34     6     1    1
    35    27    22   ar
    36    35    30   ar
    37    13    19    1
    38    16    20    1
@<TRIPOS>MOLECULE
*****
 35 38 0 0 0
SMALL
GASTEIGER

@<TRIPOS>ATOM
      1 N          64.5335   92.0771   11.7041 N.3     1  UNL1       -0.1591
      2 C          64.2701   91.2203   12.9068 C.3     1  UNL1        0.0991
      3 C          63.2881   90.0897   12.8216 C.3     1  UNL1        0.0627
      4 C          62.5694   89.8159   11.5338 C.3     1  UNL1        0.1688
      5 C          62.8327   90.6727   10.3311 C.3     1  UNL1        0.0627
      6 C          63.8148   91.8033   10.4163 C.3     1  UNL1        0.0991
      7 S          65.5156   93.2077   11.7892 S.O2    1  UNL1        0.0459
      8 O          65.9106   92.7609   13.1655 O.2     1  UNL1       -0.1572
      9 O          65.1205   93.6545   10.4129 O.2     1  UNL1       -0.1572
     10 C          66.4976   94.3383   11.8744 C.3     1  UNL1        0.1958
     11 C          65.7442   96.1635   11.5130 C.3     1  UNL1        0.0310
     12 C          66.6593   95.2800   10.7181 C.3     1  UNL1        0.1509
     13 N          66.6297   96.4064    9.7280 N.am    1  UNL1       -0.2825
     14 C          67.4928   96.0222    8.5628 C.2     1  UNL1        0.3068
     15 O          67.7480   96.8555    7.3420 O.2     1  UNL1       -0.2524
     16 N          68.0558   94.6583    8.8329 N.am    1  UNL1       -0.2383
     17 C          67.5407   94.1996   10.1649 C.2     1  UNL1        0.2469
     18 O          67.8523   92.8905   10.8273 O.2     1  UNL1       -0.2729
     19 H          66.1313   97.2498    9.8257 H       1  UNL1        0.1514
     20 H          68.6577   94.1530    8.2399 H       1  UNL1        0.1591
     21 O          61.5873   88.6853   11.4487 O.3     1  UNL1       -0.4791
     22 C          62.0340   87.3389   10.9611 C.ar    1  UNL1        0.1386
     23 C          62.3721   86.2589   11.9456 C.ar    1  UNL1        0.0400
     24 C          62.8188   84.9126   11.4579 C.ar    1  UNL1        0.0400
     25 C          62.9274   84.6462    9.9858 C.ar    1  UNL1        0.1393
     26 C          62.5893   85.7262    9.0013 C.ar    1  UNL1        0.0400
     27 C          62.1426   87.0725    9.4889 C.ar    1  UNL1        0.0400
     28 O          63.3741   83.2999    9.4982 O.3     1  UNL1       -0.4690
     29 C          64.3033   82.4700   10.3336 C.3     1  UNL1        0.2508
     30 C          63.8049   81.8231   11.5920 C.ar    1  UNL1        0.1026
     31 C          62.9286   80.6082   11.5144 C.ar    1  UNL1        0.0185
     32 C          62.4302   79.9614   12.7726 C.ar    1  UNL1        0.0029
     33 C          62.8082   80.5295   14.1084 C.ar    1  UNL1        0.0207
     34 C          63.6844   81.7444   14.1860 C.ar    1  UNL1        0.0986
     35 N          64.1828   82.3913   12.9278 N.ar    1  UNL1       -0.2445
@<TRIPOS>BOND
     1    12    11    1
     2    12    10    1
     3    10     7    1
     4     7     8    2
     5     7     9    2
     6     7     1    1
     7     1     2    1
     8     2     3    1
     9     3     4    1
    10     4    21    1
    11    21    22    1
    12    22    23   ar
    13    23    24   ar
    14    24    25   ar
    15    25    28    1
    16    28    29    1
    17    29    30    1
    18    30    31   ar
    19    31    32   ar
    20    32    33   ar
    21    33    34   ar
    22    34    35   ar
    23    25    26   ar
    24    26    27   ar
    25     4     5    1
    26     5     6    1
    27    12    13    1
    28    13    14   am
    29    14    15    2
    30    14    16   am
    31    16    17   am
    32    17    18    2
    33    17    12    1
    34     6     1    1
    35    27    22   ar
    36    35    30   ar
    37    13    19    1
    38    16    20    1
@<TRIPOS>MOLECULE
*****
 35 38 0 0 0
SMALL
GASTEIGER

@<TRIPOS>ATOM
      1 N          61.1466   86.7792    9.6644 N.3     1  UNL1       -0.1591
      2 C          60.5116   85.9980    8.5525 C.3     1  UNL1        0.0991
      3 C          59.5276   86.6626    7.6359 C.3     1  UNL1        0.0627
      4 C          59.1788   88.1083    7.8311 C.3     1  UNL1        0.1688
      5 C          59.8139   88.8895    8.9430 C.3     1  UNL1        0.0627
      6 C          60.7978   88.2250    9.8597 C.3     1  UNL1        0.0991
      7 S          62.1306   86.1147   10.5811 S.O2    1  UNL1        0.0459
      8 O          63.0309   85.8376    9.4138 O.2     1  UNL1       -0.1572
      9 O          61.2303   86.3919   11.7484 O.2     1  UNL1       -0.1572
     10 C          63.1145   85.4502   11.4978 C.3     1  UNL1        0.1958
     11 C          62.5120   83.7365   10.6434 C.3     1  UNL1        0.0310
     12 C          62.8120   84.0964   12.0684 C.3     1  UNL1        0.1509
     13 N          62.4468   82.6673   12.3411 N.am    1  UNL1       -0.2825
     14 C          62.5843   82.4270   13.8154 C.2     1  UNL1        0.3068
     15 O          62.3182   81.1333   14.5264 O.2     1  UNL1       -0.2524
     16 N          63.0345   83.7076   14.4537 N.am    1  UNL1       -0.2383
     17 C          63.1752   84.7393   13.3741 C.2     1  UNL1        0.2469
     18 O          63.6039   86.1638   13.5663 O.2     1  UNL1       -0.2729
     19 H          62.1661   82.0037   11.6703 H       1  UNL1        0.1514
     20 H          63.2072   83.8465   15.4130 H       1  UNL1        0.1591
     21 O          58.1948   88.7728    6.9144 O.3     1  UNL1       -0.4791
     22 C          58.6331   89.9118    6.0424 C.ar    1  UNL1        0.1386
     23 C          57.6142   90.8469    5.4615 C.ar    1  UNL1        0.0400
     24 C          58.0526   91.9859    4.5894 C.ar    1  UNL1        0.0400
     25 C          59.5098   92.1899    4.2982 C.ar    1  UNL1        0.1393
     26 C          60.5288   91.2548    4.8791 C.ar    1  UNL1        0.0400
     27 C          60.0905   90.1158    5.7512 C.ar    1  UNL1        0.0400
     28 O          59.9482   93.3289    3.4262 O.3     1  UNL1       -0.4690
     29 C          60.1795   93.1058    1.9610 C.3     1  UNL1        0.2508
     30 C          61.5598   93.2434    1.3902 C.ar    1  UNL1        0.1026
     31 C          62.7539   92.8660    2.2158 C.ar    1  UNL1        0.0185
     32 C          64.1342   93.0037    1.6451 C.ar    1  UNL1        0.0029
     33 C          64.3204   93.5187    0.2486 C.ar    1  UNL1        0.0207
     34 C          63.1263   93.8960   -0.5770 C.ar    1  UNL1        0.0986
     35 N          61.7460   93.7584   -0.0063 N.ar    1  UNL1       -0.2445
@<TRIPOS>BOND
     1    12    11    1
     2    12    10    1
     3    10     7    1
     4     7     8    2
     5     7     9    2
     6     7     1    1
     7     1     2    1
     8     2     3    1
     9     3     4    1
    10     4    21    1
    11    21    22    1
    12    22    23   ar
    13    23    24   ar
    14    24    25   ar
    15    25    28    1
    16    28    29    1
    17    29    30    1
    18    30    31   ar
    19    31    32   ar
    20    32    33   ar
    21    33    34   ar
    22    34    35   ar
    23    25    26   ar
    24    26    27   ar
    25     4     5    1
    26     5     6    1
    27    12    13    1
    28    13    14   am
    29    14    15    2
    30    14    16   am
    31    16    17   am
    32    17    18    2
    33    17    12    1
    34     6     1    1
    35    27    22   ar
    36    35    30   ar
    37    13    19    1
    38    16    20    1
@<TRIPOS>MOLECULE
*****
 35 38 0 0 0
SMALL
GASTEIGER

@<TRIPOS>ATOM
      1 N          61.1495   86.7863    9.6819 N.3     1  UNL1       -0.1591
      2 C          60.7407   88.2165    9.8751 C.3     1  UNL1        0.0991
      3 C          59.7686   88.8532    8.9267 C.3     1  UNL1        0.0627
      4 C          59.2052   88.0597    7.7852 C.3     1  UNL1        0.1688
      5 C          59.6140   86.6295    7.5921 C.3     1  UNL1        0.0627
      6 C          60.5862   85.9928    8.5404 C.3     1  UNL1        0.0991
      7 S          62.1218   86.1495   10.6303 S.O2    1  UNL1        0.0459
      8 O          63.0213   85.8088    9.4793 O.2     1  UNL1       -0.1572
      9 O          61.2222   86.4901   11.7813 O.2     1  UNL1       -0.1572
     10 C          63.0940   85.5127   11.5786 C.3     1  UNL1        0.1958
     11 C          62.4982   83.7962   10.7251 C.3     1  UNL1        0.0310
     12 C          62.8062   84.1554   12.1485 C.3     1  UNL1        0.1509
     13 N          62.4540   82.7230   12.4209 N.am    1  UNL1       -0.2825
     14 C          62.6045   82.4806   13.8936 C.2     1  UNL1        0.3068
     15 O          62.3538   81.1834   14.6038 O.2     1  UNL1       -0.2524
     16 N          63.0497   83.7632   14.5313 N.am    1  UNL1       -0.2383
     17 C          63.1743   84.7983   13.4528 C.2     1  UNL1        0.2469
     18 O          63.5936   86.2256   13.6449 O.2     1  UNL1       -0.2729
     19 H          62.1733   82.0586   11.7508 H       1  UNL1        0.1514
     20 H          63.2287   83.9014   15.4895 H       1  UNL1        0.1591
     21 O          58.2330   88.6965    6.8369 O.3     1  UNL1       -0.4791
     22 C          58.6520   89.8794    6.0152 C.ar    1  UNL1        0.1386
     23 C          57.6169   90.8165    5.4672 C.ar    1  UNL1        0.0400
     24 C          58.0361   91.9994    4.6455 C.ar    1  UNL1        0.0400
     25 C          59.4903   92.2452    4.3719 C.ar    1  UNL1        0.1393
     26 C          60.5254   91.3081    4.9200 C.ar    1  UNL1        0.0400
     27 C          60.1063   90.1252    5.7416 C.ar    1  UNL1        0.0400
     28 O          59.9094   93.4280    3.5502 O.3     1  UNL1       -0.4690
     29 C          60.4836   93.2236    2.1797 C.3     1  UNL1        0.2508
     30 C          59.7848   93.7938    0.9810 C.ar    1  UNL1        0.1026
     31 C          60.2839   95.0622    0.3548 C.ar    1  UNL1        0.0185
     32 C          59.5852   95.6323   -0.8438 C.ar    1  UNL1        0.0029
     33 C          58.3873   94.9342   -1.4161 C.ar    1  UNL1        0.0207
     34 C          57.8882   93.6658   -0.7899 C.ar    1  UNL1        0.0986
     35 N          58.5869   93.0956    0.4087 N.ar    1  UNL1       -0.2445
@<TRIPOS>BOND
     1    12    11    1
     2    12    10    1
     3    10     7    1
     4     7     8    2
     5     7     9    2
     6     7     1    1
     7     1     2    1
     8     2     3    1
     9     3     4    1
    10     4    21    1
    11    21    22    1
    12    22    23   ar
    13    23    24   ar
    14    24    25   ar
    15    25    28    1
    16    28    29    1
    17    29    30    1
    18    30    31   ar
    19    31    32   ar
    20    32    33   ar
    21    33    34   ar
    22    34    35   ar
    23    25    26   ar
    24    26    27   ar
    25     4     5    1
    26     5     6    1
    27    12    13    1
    28    13    14   am
    29    14    15    2
    30    14    16   am
    31    16    17   am
    32    17    18    2
    33    17    12    1
    34     6     1    1
    35    27    22   ar
    36    35    30   ar
    37    13    19    1
    38    16    20    1
