@<TRIPOS>MOLECULE
*****
 16 18 0 0 0
SMALL
GASTEIGER

@<TRIPOS>ATOM
      1 O          64.7508   92.5747   11.7582 O.3     1  UNL1       -0.4724
      2 CL         68.9624   92.2834    8.7288 Cl      1  UNL1       -0.0805
      3 C          67.9085   93.1026    9.4129 C.ar    1  UNL1        0.0798
      4 C          67.9065   94.5954    9.2665 C.ar    1  UNL1        0.1104
      5 N          66.8526   95.4147    9.9507 N.ar    1  UNL1       -0.2383
      6 C          65.8007   94.7412   10.7812 C.ar    1  UNL1        0.1357
      7 C          65.8027   93.2484   10.9276 C.ar    1  UNL1        0.1585
      8 C          66.8566   92.4291   10.2435 C.ar    1  UNL1        0.0515
      9 C          65.1419   91.8099   12.9878 C.3     1  UNL1        0.2210
     10 C          66.2643   92.3029   13.8524 C.3     1  UNL1        0.0983
     11 C          67.6642   91.7644   13.8717 C.3     1  UNL1        0.0209
     12 C          68.4489   92.5496   14.8806 C.3     1  UNL1        0.0172
     13 C          68.9634   93.4883   15.9314 C.3     1  UNL1        0.0171
     14 C          67.5339   93.5733   15.4848 C.3     1  UNL1        0.0541
     15 N          66.1837   93.4208   14.8493 N.3     1  UNL1       -0.2966
     16 H          65.9233   94.2869   14.3778 H       1  UNL1        0.1233
@<TRIPOS>BOND
     1     2     3    1
     2     3     4   ar
     3     4     5   ar
     4     5     6   ar
     5     6     7   ar
     6     7     1    1
     7     1     9    1
     8    10     9    1
     9    10    11    1
    10    12    11    1
    11    12    13    1
    12    14    13    1
    13    14    15    1
    14     7     8   ar
    15     8     3   ar
    16    15    10    1
    17    14    12    1
    18    15    16    1
@<TRIPOS>MOLECULE
*****
 16 18 0 0 0
SMALL
GASTEIGER

@<TRIPOS>ATOM
      1 O          65.5741   92.8413   12.8273 O.3     1  UNL1       -0.4724
      2 CL         68.6521   92.3125    8.6744 Cl      1  UNL1       -0.0805
      3 C          67.7873   93.1706    9.5496 C.ar    1  UNL1        0.0798
      4 C          67.5966   94.6222    9.2234 C.ar    1  UNL1        0.1104
      5 N          66.7318   95.4802   10.0986 N.ar    1  UNL1       -0.2383
      6 C          66.0576   94.8866   11.2999 C.ar    1  UNL1        0.1357
      7 C          66.2483   93.4350   11.6260 C.ar    1  UNL1        0.1585
      8 C          67.1132   92.5769   10.7508 C.ar    1  UNL1        0.0515
      9 C          64.5765   91.7342   12.6568 C.3     1  UNL1        0.2210
     10 C          64.1679   90.9044   13.8377 C.3     1  UNL1        0.0983
     11 C          64.2678   89.4114   13.9430 C.3     1  UNL1        0.0209
     12 C          63.7492   89.0061   15.2910 C.3     1  UNL1        0.0172
     13 C          63.1852   88.9087   16.6775 C.3     1  UNL1        0.0171
     14 C          63.3289   90.2487   16.0187 C.3     1  UNL1        0.0541
     15 N          63.5876   91.4218   15.1205 N.3     1  UNL1       -0.2966
     16 H          64.2469   92.0601   15.5660 H       1  UNL1        0.1233
@<TRIPOS>BOND
     1     2     3    1
     2     3     4   ar
     3     4     5   ar
     4     5     6   ar
     5     6     7   ar
     6     7     1    1
     7     1     9    1
     8    10     9    1
     9    10    11    1
    10    12    11    1
    11    12    13    1
    12    14    13    1
    13    14    15    1
    14     7     8   ar
    15     8     3   ar
    16    15    10    1
    17    14    12    1
    18    15    16    1
@<TRIPOS>MOLECULE
*****
 16 18 0 0 0
SMALL
GASTEIGER

@<TRIPOS>ATOM
      1 O          65.3861   93.1030   12.7914 O.3     1  UNL1       -0.4724
      2 CL         68.6045   92.2149    8.8097 Cl      1  UNL1       -0.0805
      3 C          67.7927   93.1677    9.6363 C.ar    1  UNL1        0.0798
      4 C          67.7782   94.6291    9.2987 C.ar    1  UNL1        0.1104
      5 N          66.9664   95.5818   10.1252 N.ar    1  UNL1       -0.2383
      6 C          66.1690   95.0731   11.2895 C.ar    1  UNL1        0.1357
      7 C          66.1835   93.6117   11.6271 C.ar    1  UNL1        0.1585
      8 C          66.9953   92.6590   10.8005 C.ar    1  UNL1        0.0515
      9 C          65.0094   91.6530   12.8661 C.3     1  UNL1        0.2210
     10 C          63.8053   91.1517   12.1252 C.3     1  UNL1        0.0983
     11 C          63.5767   91.2493   10.6459 C.3     1  UNL1        0.0209
     12 C          62.2486   90.6227   10.3399 C.3     1  UNL1        0.0172
     13 C          60.9098   89.9462   10.3433 C.3     1  UNL1        0.0171
     14 C          61.6565   90.1379   11.6301 C.3     1  UNL1        0.0541
     15 N          62.6186   90.4648   12.7334 N.3     1  UNL1       -0.2966
     16 H          62.9160   89.6073   13.1988 H       1  UNL1        0.1233
@<TRIPOS>BOND
     1     2     3    1
     2     3     4   ar
     3     4     5   ar
     4     5     6   ar
     5     6     7   ar
     6     7     1    1
     7     1     9    1
     8    10     9    1
     9    10    11    1
    10    12    11    1
    11    12    13    1
    12    14    13    1
    13    14    15    1
    14     7     8   ar
    15     8     3   ar
    16    15    10    1
    17    14    12    1
    18    15    16    1
@<TRIPOS>MOLECULE
*****
 16 18 0 0 0
SMALL
GASTEIGER

@<TRIPOS>ATOM
      1 O          62.4382   85.0173   13.2888 O.3     1  UNL1       -0.4724
      2 CL         63.1318   80.7323   10.4326 Cl      1  UNL1       -0.0805
      3 C          62.9059   81.3827   11.7652 C.ar    1  UNL1        0.0798
      4 C          62.8008   80.5411   13.0024 C.ar    1  UNL1        0.1104
      5 N          62.5749   81.1915   14.3350 N.ar    1  UNL1       -0.2383
      6 C          62.4540   82.6836   14.4305 C.ar    1  UNL1        0.1357
      7 C          62.5591   83.5252   13.1933 C.ar    1  UNL1        0.1585
      8 C          62.7850   82.8748   11.8607 C.ar    1  UNL1        0.0515
      9 C          62.8865   85.8806   12.1470 C.3     1  UNL1        0.2210
     10 C          61.9071   86.2914   11.0877 C.3     1  UNL1        0.0983
     11 C          61.9469   85.8844    9.6446 C.3     1  UNL1        0.0209
     12 C          60.7803   86.5228    8.9505 C.3     1  UNL1        0.0172
     13 C          59.5517   87.2793    8.5403 C.3     1  UNL1        0.0171
     14 C          60.0195   87.3243    9.9649 C.3     1  UNL1        0.0541
     15 N          60.7159   87.1813   11.2857 N.3     1  UNL1       -0.2966
     16 H          60.0822   86.7648   11.9678 H       1  UNL1        0.1233
@<TRIPOS>BOND
     1     2     3    1
     2     3     4   ar
     3     4     5   ar
     4     5     6   ar
     5     6     7   ar
     6     7     1    1
     7     1     9    1
     8    10     9    1
     9    10    11    1
    10    12    11    1
    11    12    13    1
    12    14    13    1
    13    14    15    1
    14     7     8   ar
    15     8     3   ar
    16    15    10    1
    17    14    12    1
    18    15    16    1
@<TRIPOS>MOLECULE
*****
 16 18 0 0 0
SMALL
GASTEIGER

@<TRIPOS>ATOM
      1 O          65.1709   92.0771   11.0006 O.3     1  UNL1       -0.4724
      2 CL         60.7087   89.8695    9.5120 Cl      1  UNL1       -0.0805
      3 C          61.7190   90.1644   10.5808 C.ar    1  UNL1        0.0798
      4 C          61.5085   89.6504   11.9741 C.ar    1  UNL1        0.1104
      5 N          62.5187   89.9452   13.0430 N.ar    1  UNL1       -0.2383
      6 C          63.7395   90.7541   12.7185 C.ar    1  UNL1        0.1357
      7 C          63.9500   91.2682   11.3252 C.ar    1  UNL1        0.1585
      8 C          62.9398   90.9733   10.2563 C.ar    1  UNL1        0.0515
      9 C          65.5492   93.2435   11.8645 C.3     1  UNL1        0.2210
     10 C          66.3536   93.0236   13.1115 C.3     1  UNL1        0.0983
     11 C          67.3778   91.9481   13.3216 C.3     1  UNL1        0.0209
     12 C          67.9322   92.1003   14.7071 C.3     1  UNL1        0.0172
     13 C          68.2880   92.4947   16.1099 C.3     1  UNL1        0.0171
     14 C          67.2505   93.2700   15.3532 C.3     1  UNL1        0.0541
     15 N          66.2749   93.8405   14.3670 N.3     1  UNL1       -0.2966
     16 H          66.5151   94.8109   14.1642 H       1  UNL1        0.1233
@<TRIPOS>BOND
     1     2     3    1
     2     3     4   ar
     3     4     5   ar
     4     5     6   ar
     5     6     7   ar
     6     7     1    1
     7     1     9    1
     8    10     9    1
     9    10    11    1
    10    12    11    1
    11    12    13    1
    12    14    13    1
    13    14    15    1
    14     7     8   ar
    15     8     3   ar
    16    15    10    1
    17    14    12    1
    18    15    16    1
@<TRIPOS>MOLECULE
*****
 16 18 0 0 0
SMALL
GASTEIGER

@<TRIPOS>ATOM
      1 O          62.3829   85.4019   12.8399 O.3     1  UNL1       -0.4724
      2 CL         63.1086   80.7577   10.6252 Cl      1  UNL1       -0.0805
      3 C          63.0734   81.6209   11.8515 C.ar    1  UNL1        0.0798
      4 C          63.3658   81.0251   13.1967 C.ar    1  UNL1        0.1104
      5 N          63.3306   81.8883   14.4229 N.ar    1  UNL1       -0.2383
      6 C          63.0029   83.3472   14.3040 C.ar    1  UNL1        0.1357
      7 C          62.7105   83.9430   12.9588 C.ar    1  UNL1        0.1585
      8 C          62.7458   83.0798   11.7326 C.ar    1  UNL1        0.0515
      9 C          62.0776   85.9949   11.4964 C.3     1  UNL1        0.2210
     10 C          62.3265   87.4528   11.2459 C.3     1  UNL1        0.0983
     11 C          62.0943   88.1775    9.9532 C.3     1  UNL1        0.0209
     12 C          62.4756   89.6145   10.1525 C.3     1  UNL1        0.0172
     13 C          62.9251   90.9587   10.6434 C.3     1  UNL1        0.0171
     14 C          62.9434   89.7779   11.5683 C.3     1  UNL1        0.0541
     15 N          62.8512   88.4419   12.2440 N.3     1  UNL1       -0.2966
     16 H          62.2166   88.4998   13.0404 H       1  UNL1        0.1233
@<TRIPOS>BOND
     1     2     3    1
     2     3     4   ar
     3     4     5   ar
     4     5     6   ar
     5     6     7   ar
     6     7     1    1
     7     1     9    1
     8    10     9    1
     9    10    11    1
    10    12    11    1
    11    12    13    1
    12    14    13    1
    13    14    15    1
    14     7     8   ar
    15     8     3   ar
    16    15    10    1
    17    14    12    1
    18    15    16    1
@<TRIPOS>MOLECULE
*****
 16 18 0 0 0
SMALL
GASTEIGER

@<TRIPOS>ATOM
      1 O          63.9046   91.6555   13.3327 O.3     1  UNL1       -0.4724
      2 CL         64.4131   86.6318   14.5592 Cl      1  UNL1       -0.0805
      3 C          64.0340   88.0311   14.9443 C.ar    1  UNL1        0.0798
      4 C          63.5301   88.3178   16.3277 C.ar    1  UNL1        0.1104
      5 N          63.1510   89.7171   16.7128 N.ar    1  UNL1       -0.2383
      6 C          63.2758   90.8297   15.7145 C.ar    1  UNL1        0.1357
      7 C          63.7797   90.5429   14.3311 C.ar    1  UNL1        0.1585
      8 C          64.1589   89.1436   13.9460 C.ar    1  UNL1        0.0515
      9 C          65.2506   92.0198   12.7802 C.3     1  UNL1        0.2210
     10 C          66.3524   92.4419   13.7065 C.3     1  UNL1        0.0983
     11 C          67.7426   91.8795   13.7369 C.3     1  UNL1        0.0209
     12 C          68.5069   92.5905   14.8142 C.3     1  UNL1        0.0172
     13 C          69.0020   93.4569   15.9341 C.3     1  UNL1        0.0171
     14 C          67.5889   93.5923   15.4496 C.3     1  UNL1        0.0541
     15 N          66.2574   93.5005   14.7650 N.3     1  UNL1       -0.2966
     16 H          66.0252   94.3972   14.3379 H       1  UNL1        0.1233
@<TRIPOS>BOND
     1     2     3    1
     2     3     4   ar
     3     4     5   ar
     4     5     6   ar
     5     6     7   ar
     6     7     1    1
     7     1     9    1
     8    10     9    1
     9    10    11    1
    10    12    11    1
    11    12    13    1
    12    14    13    1
    13    14    15    1
    14     7     8   ar
    15     8     3   ar
    16    15    10    1
    17    14    12    1
    18    15    16    1
@<TRIPOS>MOLECULE
*****
 16 18 0 0 0
SMALL
GASTEIGER

@<TRIPOS>ATOM
      1 O          65.4990   91.9137   11.4010 O.3     1  UNL1       -0.4724
      2 CL         65.8766   96.8430    9.8014 Cl      1  UNL1       -0.0805
      3 C          66.4415   95.4557    9.8791 C.ar    1  UNL1        0.0798
      4 C          67.7601   95.1456    9.2348 C.ar    1  UNL1        0.1104
      5 N          68.3250   93.7582    9.3126 N.ar    1  UNL1       -0.2383
      6 C          67.5713   92.6809   10.0346 C.ar    1  UNL1        0.1357
      7 C          66.2528   92.9910   10.6789 C.ar    1  UNL1        0.1585
      8 C          65.6878   94.3784   10.6011 C.ar    1  UNL1        0.0515
      9 C          65.1718   92.0736   12.8561 C.3     1  UNL1        0.2210
     10 C          66.2737   92.2628   13.8562 C.3     1  UNL1        0.0983
     11 C          66.0978   92.5529   15.3173 C.3     1  UNL1        0.0209
     12 C          67.4602   92.6646   15.9350 C.3     1  UNL1        0.0172
     13 C          68.9233   92.7179   16.2614 C.3     1  UNL1        0.0171
     14 C          68.4780   92.4434   14.8555 C.3     1  UNL1        0.0541
     15 N          67.7447   92.1951   13.5708 N.3     1  UNL1       -0.2966
     16 H          67.9848   91.2726   13.2079 H       1  UNL1        0.1233
@<TRIPOS>BOND
     1     2     3    1
     2     3     4   ar
     3     4     5   ar
     4     5     6   ar
     5     6     7   ar
     6     7     1    1
     7     1     9    1
     8    10     9    1
     9    10    11    1
    10    12    11    1
    11    12    13    1
    12    14    13    1
    13    14    15    1
    14     7     8   ar
    15     8     3   ar
    16    15    10    1
    17    14    12    1
    18    15    16    1
@<TRIPOS>MOLECULE
*****
 16 18 0 0 0
SMALL
GASTEIGER

@<TRIPOS>ATOM
      1 O          61.6922   86.0788   11.9821 O.3     1  UNL1       -0.4724
      2 CL         59.2629   86.8416    7.4525 Cl      1  UNL1       -0.0805
      3 C          59.9946   87.3883    8.6424 C.ar    1  UNL1        0.0798
      4 C          60.2434   88.8630    8.7573 C.ar    1  UNL1        0.1104
      5 N          60.9752   89.4097    9.9472 N.ar    1  UNL1       -0.2383
      6 C          61.4581   88.4816   11.0221 C.ar    1  UNL1        0.1357
      7 C          61.2093   87.0069   10.9071 C.ar    1  UNL1        0.1585
      8 C          60.4776   86.4602    9.7173 C.ar    1  UNL1        0.0515
      9 C          62.7840   85.0934   11.6874 C.3     1  UNL1        0.2210
     10 C          62.7292   83.7148   12.2761 C.3     1  UNL1        0.0983
     11 C          62.8506   82.4266   11.5173 C.3     1  UNL1        0.0209
     12 C          62.7398   81.2980   12.4992 C.3     1  UNL1        0.0172
     13 C          62.5973   80.3995   13.6919 C.3     1  UNL1        0.0171
     14 C          62.5498   81.8888   13.8649 C.3     1  UNL1        0.0541
     15 N          62.5433   83.3824   13.7270 N.3     1  UNL1       -0.2966
     16 H          63.3046   83.7839   14.2743 H       1  UNL1        0.1233
@<TRIPOS>BOND
     1     2     3    1
     2     3     4   ar
     3     4     5   ar
     4     5     6   ar
     5     6     7   ar
     6     7     1    1
     7     1     9    1
     8    10     9    1
     9    10    11    1
    10    12    11    1
    11    12    13    1
    12    14    13    1
    13    14    15    1
    14     7     8   ar
    15     8     3   ar
    16    15    10    1
    17    14    12    1
    18    15    16    1
