@<TRIPOS>MOLECULE
*****
 32 35 0 0 0
SMALL
GASTEIGER

@<TRIPOS>ATOM
      1 N          63.9225   86.5794   13.9270 N.ar    1  UNL1       -0.2357
      2 N          64.6876   87.2602   15.0229 N.ar    1  UNL1       -0.1663
      3 C          64.6847   88.7340   14.7438 C.ar    1  UNL1        0.1279
      4 C          63.9177   88.9640   13.4753 C.ar    1  UNL1        0.1099
      5 C          63.5875   90.2139   12.7148 C.ar    1  UNL1        0.2355
      6 N          62.7862   90.1323   11.4494 N.ar    1  UNL1       -0.1889
      7 C          62.3151   88.8007   10.9446 C.ar    1  UNL1        0.2029
      8 N          62.6454   87.5507   11.7052 N.ar    1  UNL1       -0.2049
      9 C          63.4467   87.6323   12.9705 C.ar    1  UNL1        0.1671
     10 C          62.9381   80.6797   13.4523 C.2     1  UNL1        0.4048
     11 O          63.4746   79.7436   14.4944 O.2     1  UNL1       -0.2262
     12 N          63.1842   82.1546   13.5710 N.am    1  UNL1       -0.2459
     13 C          62.6478   83.0907   12.5290 C.3     1  UNL1        0.0987
     14 C          62.8939   84.5656   12.6476 C.3     1  UNL1        0.0461
     15 C          63.6764   85.1045   13.8083 C.3     1  UNL1        0.1102
     16 C          64.2129   84.1683   14.8504 C.3     1  UNL1        0.0461
     17 C          63.9668   82.6934   14.7317 C.3     1  UNL1        0.0987
     18 O          62.1556   80.1409   12.2916 O.3     1  UNL1       -0.4383
     19 C          63.4966   81.0964   10.2818 C.3     1  UNL1        0.0474
     20 C          62.8245   79.9417   10.9639 C.3     1  UNL1        0.1707
     21 C          62.8214   78.5879   10.3181 C.3     1  UNL1        0.0474
     22 O          64.0585   91.5456   13.2196 O.3     1  UNL1       -0.4359
     23 C          64.8130   92.4687   12.3093 C.ar    1  UNL1        0.1473
     24 C          64.6068   92.3926   10.8255 C.ar    1  UNL1        0.0389
     25 C          65.3612   93.3157    9.9151 C.ar    1  UNL1        0.0215
     26 C          66.3219   94.3148   10.4885 C.ar    1  UNL1        0.1059
     27 C          66.5282   94.3909   11.9724 C.ar    1  UNL1        0.0215
     28 C          65.7737   93.4678   12.8828 C.ar    1  UNL1        0.0389
     29 S          67.0764   95.2378    9.5782 S.O2    1  UNL1        0.0105
     30 C          67.8308   96.1609    8.6678 C.3     1  UNL1        0.1816
     31 O          65.9138   96.1857    9.5758 O.2     1  UNL1       -0.1686
     32 O          68.2389   94.2900    9.5806 O.2     1  UNL1       -0.1686
@<TRIPOS>BOND
     1    19    20    1
     2    20    21    1
     3    20    18    1
     4    18    10    1
     5    10    11    2
     6    10    12   am
     7    12    13    1
     8    13    14    1
     9    14    15    1
    10    15     1    1
    11     1     2   ar
    12     2     3   ar
    13     3     4   ar
    14     4     5   ar
    15     5    22    1
    16    22    23    1
    17    23    24   ar
    18    24    25   ar
    19    25    26   ar
    20    26    29    1
    21    29    30    1
    22    29    31    2
    23    29    32    2
    24    26    27   ar
    25    27    28   ar
    26     5     6   ar
    27     6     7   ar
    28     7     8   ar
    29     8     9   ar
    30    15    16    1
    31    16    17    1
    32    17    12    1
    33     9     1   ar
    34     9     4   ar
    35    28    23   ar
@<TRIPOS>MOLECULE
*****
 32 35 0 0 0
SMALL
GASTEIGER

@<TRIPOS>ATOM
      1 N          63.6060   86.7616   13.3576 N.ar    1  UNL1       -0.2357
      2 N          64.1828   87.6255   14.4398 N.ar    1  UNL1       -0.1663
      3 C          64.0647   89.0557   14.0035 C.ar    1  UNL1        0.1279
      4 C          63.4149   89.0758   12.6516 C.ar    1  UNL1        0.1099
      5 C          63.0447   90.2020   11.7326 C.ar    1  UNL1        0.2355
      6 N          62.3911   89.9104   10.4144 N.ar    1  UNL1       -0.1889
      7 C          62.1076   88.4925   10.0153 C.ar    1  UNL1        0.2029
      8 N          62.4778   87.3663   10.9343 N.ar    1  UNL1       -0.2049
      9 C          63.1315   87.6580   12.2525 C.ar    1  UNL1        0.1671
     10 C          63.2583   80.7722   13.4357 C.2     1  UNL1        0.4048
     11 O          64.0299   79.9893   14.4564 O.2     1  UNL1       -0.2262
     12 N          63.3453   82.2695   13.4161 N.am    1  UNL1       -0.2459
     13 C          62.5737   83.0523   12.3954 C.3     1  UNL1        0.0987
     14 C          62.6607   84.5497   12.3759 C.3     1  UNL1        0.0461
     15 C          63.5191   85.2643   13.3771 C.3     1  UNL1        0.1102
     16 C          64.2906   84.4814   14.3978 C.3     1  UNL1        0.0461
     17 C          64.2037   82.9841   14.4173 C.3     1  UNL1        0.0987
     18 O          62.3998   80.0577   12.4344 O.3     1  UNL1       -0.4383
     19 C          63.4480   81.0581   10.2779 C.3     1  UNL1        0.0474
     20 C          62.8774   79.8878   11.0227 C.3     1  UNL1        0.1707
     21 C          62.7842   78.5475   10.3556 C.3     1  UNL1        0.0474
     22 O          63.3282   91.6199   12.1318 O.3     1  UNL1       -0.4359
     23 C          64.5668   91.9458   12.9126 C.ar    1  UNL1        0.1473
     24 C          64.5370   91.9186   14.4120 C.ar    1  UNL1        0.0389
     25 C          65.7756   92.2445   15.1928 C.ar    1  UNL1        0.0215
     26 C          67.0440   92.5977   14.4742 C.ar    1  UNL1        0.1059
     27 C          67.0738   92.6250   12.9747 C.ar    1  UNL1        0.0215
     28 C          65.8352   92.2990   12.1939 C.ar    1  UNL1        0.0389
     29 S          68.2826   92.9237   15.2550 S.O2    1  UNL1        0.0105
     30 C          69.5212   93.2496   16.0358 C.3     1  UNL1        0.1816
     31 O          69.1279   92.5049   14.0888 O.2     1  UNL1       -0.1686
     32 O          67.4372   93.3424   16.4212 O.2     1  UNL1       -0.1686
@<TRIPOS>BOND
     1    19    20    1
     2    20    21    1
     3    20    18    1
     4    18    10    1
     5    10    11    2
     6    10    12   am
     7    12    13    1
     8    13    14    1
     9    14    15    1
    10    15     1    1
    11     1     2   ar
    12     2     3   ar
    13     3     4   ar
    14     4     5   ar
    15     5    22    1
    16    22    23    1
    17    23    24   ar
    18    24    25   ar
    19    25    26   ar
    20    26    29    1
    21    29    30    1
    22    29    31    2
    23    29    32    2
    24    26    27   ar
    25    27    28   ar
    26     5     6   ar
    27     6     7   ar
    28     7     8   ar
    29     8     9   ar
    30    15    16    1
    31    16    17    1
    32    17    12    1
    33     9     1   ar
    34     9     4   ar
    35    28    23   ar
@<TRIPOS>MOLECULE
*****
 32 35 0 0 0
SMALL
GASTEIGER

@<TRIPOS>ATOM
      1 N          63.6685   86.1000   13.9769 N.ar    1  UNL1       -0.2357
      2 N          64.4915   86.6449   15.1064 N.ar    1  UNL1       -0.1663
      3 C          64.6516   88.1210   14.8933 C.ar    1  UNL1        0.1279
      4 C          63.9275   88.4884   13.6320 C.ar    1  UNL1        0.1099
      5 C          63.7429   89.7990   12.9260 C.ar    1  UNL1        0.2355
      6 N          62.9507   89.8605   11.6538 N.ar    1  UNL1       -0.1889
      7 C          62.3432   88.6114   11.0875 C.ar    1  UNL1        0.2029
      8 N          62.5278   87.3009   11.7934 N.ar    1  UNL1       -0.2049
      9 C          63.3199   87.2394   13.0657 C.ar    1  UNL1        0.1671
     10 C          62.0543   80.3692   13.2341 C.2     1  UNL1        0.4048
     11 O          62.4588   79.6309   11.9925 O.2     1  UNL1       -0.2262
     12 N          62.4579   81.8019   13.4198 N.am    1  UNL1       -0.2459
     13 C          62.0534   82.5401   14.6613 C.3     1  UNL1        0.0987
     14 C          62.4570   83.9728   14.8470 C.3     1  UNL1        0.0461
     15 C          63.2650   84.6673   13.7912 C.3     1  UNL1        0.1102
     16 C          63.6695   83.9291   12.5497 C.3     1  UNL1        0.0461
     17 C          63.2659   82.4964   12.3640 C.3     1  UNL1        0.0987
     18 O          61.2463   79.6747   14.2899 O.3     1  UNL1       -0.4383
     19 C          59.0435   81.0017   13.9196 C.3     1  UNL1        0.0474
     20 C          59.7478   79.7155   14.2354 C.3     1  UNL1        0.1707
     21 C          58.9536   78.4702   14.4968 C.3     1  UNL1        0.0474
     22 O          64.3504   91.0480   13.4924 O.3     1  UNL1       -0.4359
     23 C          64.9825   92.0557   12.5785 C.ar    1  UNL1        0.1473
     24 C          64.6796   92.0299   11.1097 C.ar    1  UNL1        0.0389
     25 C          65.3117   93.0375   10.1957 C.ar    1  UNL1        0.0215
     26 C          66.2466   94.0709   10.7507 C.ar    1  UNL1        0.1059
     27 C          66.5495   94.0967   12.2196 C.ar    1  UNL1        0.0215
     28 C          65.9174   93.0891   13.1335 C.ar    1  UNL1        0.0389
     29 S          66.8786   95.0785    9.8368 S.O2    1  UNL1        0.0105
     30 C          67.5106   96.0861    8.9229 C.3     1  UNL1        0.1816
     31 O          68.1011   94.2157    9.7310 O.2     1  UNL1       -0.1686
     32 O          65.6561   95.9413    9.9426 O.2     1  UNL1       -0.1686
@<TRIPOS>BOND
     1    19    20    1
     2    20    21    1
     3    20    18    1
     4    18    10    1
     5    10    11    2
     6    10    12   am
     7    12    13    1
     8    13    14    1
     9    14    15    1
    10    15     1    1
    11     1     2   ar
    12     2     3   ar
    13     3     4   ar
    14     4     5   ar
    15     5    22    1
    16    22    23    1
    17    23    24   ar
    18    24    25   ar
    19    25    26   ar
    20    26    29    1
    21    29    30    1
    22    29    31    2
    23    29    32    2
    24    26    27   ar
    25    27    28   ar
    26     5     6   ar
    27     6     7   ar
    28     7     8   ar
    29     8     9   ar
    30    15    16    1
    31    16    17    1
    32    17    12    1
    33     9     1   ar
    34     9     4   ar
    35    28    23   ar
@<TRIPOS>MOLECULE
*****
 32 35 0 0 0
SMALL
GASTEIGER

@<TRIPOS>ATOM
      1 N          61.3497   88.2164   10.5273 N.ar    1  UNL1       -0.2357
      2 N          61.0383   89.6788   10.6473 N.ar    1  UNL1       -0.1663
      3 C          60.1581   90.0615    9.4946 C.ar    1  UNL1        0.1279
      4 C          59.9255   88.8355    8.6621 C.ar    1  UNL1        0.1099
      5 C          59.1382   88.6102    7.4054 C.ar    1  UNL1        0.2355
      6 N          59.0874   87.2446    6.7869 N.ar    1  UNL1       -0.1889
      7 C          59.8238   86.1043    7.4251 C.ar    1  UNL1        0.2029
      8 N          60.6111   86.3296    8.6819 N.ar    1  UNL1       -0.2049
      9 C          60.6619   87.6952    9.3004 C.ar    1  UNL1        0.1671
     10 C          64.7494   85.0138   14.2937 C.2     1  UNL1        0.4048
     11 O          65.6042   85.7113   15.3100 O.2     1  UNL1       -0.2262
     12 N          63.8995   85.8145   13.3521 N.am    1  UNL1       -0.2459
     13 C          63.0447   85.1170   12.3358 C.3     1  UNL1        0.0987
     14 C          62.1948   85.9177   11.3942 C.3     1  UNL1        0.0461
     15 C          62.1996   87.4158   11.4689 C.3     1  UNL1        0.1102
     16 C          63.0544   88.1132   12.4852 C.3     1  UNL1        0.0461
     17 C          63.9043   87.3126   13.4268 C.3     1  UNL1        0.0987
     18 O          64.7445   83.5157   14.2189 O.3     1  UNL1       -0.4383
     19 C          62.4558   83.3243   15.4338 C.3     1  UNL1        0.0474
     20 C          63.4828   82.7548   14.5004 C.3     1  UNL1        0.1707
     21 C          63.2480   81.4244   13.8486 C.3     1  UNL1        0.0474
     22 O          58.4018   89.7505    6.7671 O.3     1  UNL1       -0.4359
     23 C          59.0707   90.5768    5.7090 C.ar    1  UNL1        0.1473
     24 C          60.5441   90.4346    5.4662 C.ar    1  UNL1        0.0389
     25 C          61.2130   91.2609    4.4080 C.ar    1  UNL1        0.0215
     26 C          60.4087   92.2294    3.5926 C.ar    1  UNL1        0.1059
     27 C          58.9352   92.3717    3.8354 C.ar    1  UNL1        0.0215
     28 C          58.2663   91.5454    4.8935 C.ar    1  UNL1        0.0389
     29 S          61.0776   93.0557    2.5345 S.O2    1  UNL1        0.0105
     30 C          61.7466   93.8820    1.4763 C.3     1  UNL1        0.1816
     31 O          62.3777   92.3620    2.8147 O.2     1  UNL1       -0.1686
     32 O          59.7775   93.7494    2.2543 O.2     1  UNL1       -0.1686
@<TRIPOS>BOND
     1    19    20    1
     2    20    21    1
     3    20    18    1
     4    18    10    1
     5    10    11    2
     6    10    12   am
     7    12    13    1
     8    13    14    1
     9    14    15    1
    10    15     1    1
    11     1     2   ar
    12     2     3   ar
    13     3     4   ar
    14     4     5   ar
    15     5    22    1
    16    22    23    1
    17    23    24   ar
    18    24    25   ar
    19    25    26   ar
    20    26    29    1
    21    29    30    1
    22    29    31    2
    23    29    32    2
    24    26    27   ar
    25    27    28   ar
    26     5     6   ar
    27     6     7   ar
    28     7     8   ar
    29     8     9   ar
    30    15    16    1
    31    16    17    1
    32    17    12    1
    33     9     1   ar
    34     9     4   ar
    35    28    23   ar
@<TRIPOS>MOLECULE
*****
 32 35 0 0 0
SMALL
GASTEIGER

@<TRIPOS>ATOM
      1 N          63.4074   86.6456   13.3572 N.ar    1  UNL1       -0.2357
      2 N          63.4916   87.5033   12.1294 N.ar    1  UNL1       -0.1663
      3 C          63.5287   88.9374   12.5675 C.ar    1  UNL1        0.1279
      4 C          63.4675   88.9660   14.0660 C.ar    1  UNL1        0.1099
      5 C          63.4703   90.0989   15.0491 C.ar    1  UNL1        0.2355
      6 N          63.3982   89.8154   16.5203 N.ar    1  UNL1       -0.1889
      7 C          63.3232   88.3990   17.0083 C.ar    1  UNL1        0.2029
      8 N          63.3204   87.2662   16.0252 N.ar    1  UNL1       -0.2049
      9 C          63.3925   87.5497   14.5540 C.ar    1  UNL1        0.1671
     10 C          63.1717   80.6511   13.4624 C.2     1  UNL1        0.4048
     11 O          63.9387   79.8885   14.5017 O.2     1  UNL1       -0.2262
     12 N          63.2307   82.1497   13.4361 N.am    1  UNL1       -0.2459
     13 C          62.4637   82.9124   12.3968 C.3     1  UNL1        0.0987
     14 C          62.5226   84.4110   12.3705 C.3     1  UNL1        0.0461
     15 C          63.3485   85.1470   13.3835 C.3     1  UNL1        0.1102
     16 C          64.1155   84.3844   14.4228 C.3     1  UNL1        0.0461
     17 C          64.0566   82.8858   14.4491 C.3     1  UNL1        0.0987
     18 O          62.3458   79.9152   12.4494 O.3     1  UNL1       -0.4383
     19 C          63.4164   80.9371   10.3140 C.3     1  UNL1        0.0474
     20 C          62.8476   79.7570   11.0447 C.3     1  UNL1        0.1707
     21 C          62.7806   78.4186   10.3707 C.3     1  UNL1        0.0474
     22 O          63.5453   91.5154   14.5610 O.3     1  UNL1       -0.4359
     23 C          64.5120   91.8842   13.4751 C.ar    1  UNL1        0.1473
     24 C          64.0581   91.9160   12.0458 C.ar    1  UNL1        0.0389
     25 C          65.0248   92.2848   10.9598 C.ar    1  UNL1        0.0215
     26 C          66.4455   92.6219   11.3031 C.ar    1  UNL1        0.1059
     27 C          66.8996   92.5902   12.7324 C.ar    1  UNL1        0.0215
     28 C          65.9328   92.2213   13.8184 C.ar    1  UNL1        0.0389
     29 S          67.4122   92.9908   10.2171 S.O2    1  UNL1        0.0105
     30 C          68.3790   93.3596    9.1311 C.3     1  UNL1        0.1816
     31 O          68.4131   92.0259   10.7803 O.2     1  UNL1       -0.1686
     32 O          66.4114   93.9557    9.6538 O.2     1  UNL1       -0.1686
@<TRIPOS>BOND
     1    19    20    1
     2    20    21    1
     3    20    18    1
     4    18    10    1
     5    10    11    2
     6    10    12   am
     7    12    13    1
     8    13    14    1
     9    14    15    1
    10    15     1    1
    11     1     2   ar
    12     2     3   ar
    13     3     4   ar
    14     4     5   ar
    15     5    22    1
    16    22    23    1
    17    23    24   ar
    18    24    25   ar
    19    25    26   ar
    20    26    29    1
    21    29    30    1
    22    29    31    2
    23    29    32    2
    24    26    27   ar
    25    27    28   ar
    26     5     6   ar
    27     6     7   ar
    28     7     8   ar
    29     8     9   ar
    30    15    16    1
    31    16    17    1
    32    17    12    1
    33     9     1   ar
    34     9     4   ar
    35    28    23   ar
@<TRIPOS>MOLECULE
*****
 32 35 0 0 0
SMALL
GASTEIGER

@<TRIPOS>ATOM
      1 N          61.1501   86.1816    8.9327 N.ar    1  UNL1       -0.2357
      2 N          60.5608   85.7047    7.6383 N.ar    1  UNL1       -0.1663
      3 C          59.8231   86.8521    7.0143 C.ar    1  UNL1        0.1279
      4 C          59.9565   88.0380    7.9231 C.ar    1  UNL1        0.1099
      5 C          59.4370   89.4417    7.8242 C.ar    1  UNL1        0.2355
      6 N          59.7377   90.4311    8.9108 N.ar    1  UNL1       -0.1889
      7 C          60.5578   90.0166   10.0964 C.ar    1  UNL1        0.2029
      8 N          61.0772   88.6129   10.1953 N.ar    1  UNL1       -0.2049
      9 C          60.7766   87.6236    9.1087 C.ar    1  UNL1        0.1671
     10 C          64.4262   82.8974   12.7382 C.2     1  UNL1        0.4048
     11 O          65.4082   81.8943   12.2096 O.2     1  UNL1       -0.2262
     12 N          63.6072   83.7184   11.7868 N.am    1  UNL1       -0.2459
     13 C          62.6251   84.7215   12.3154 C.3     1  UNL1        0.0987
     14 C          61.8061   85.5425   11.3640 C.3     1  UNL1        0.0461
     15 C          61.9691   85.3606    9.8841 C.3     1  UNL1        0.1102
     16 C          62.9511   84.3575    9.3555 C.3     1  UNL1        0.0461
     17 C          63.7701   83.5364   10.3069 C.3     1  UNL1        0.0987
     18 O          64.2631   83.0794   14.2181 O.3     1  UNL1       -0.4383
     19 C          62.4612   84.0044   15.8453 C.3     1  UNL1        0.0474
     20 C          62.9017   82.9817   14.8403 C.3     1  UNL1        0.1707
     21 C          61.9808   81.8613   14.4575 C.3     1  UNL1        0.0474
     22 O          58.6169   89.8561    6.6385 O.3     1  UNL1       -0.4359
     23 C          59.2284   90.7046    5.5632 C.ar    1  UNL1        0.1473
     24 C          58.3697   91.6450    4.7707 C.ar    1  UNL1        0.0389
     25 C          58.9811   92.4934    3.6954 C.ar    1  UNL1        0.0215
     26 C          60.4513   92.4014    3.4126 C.ar    1  UNL1        0.1059
     27 C          61.3101   91.4610    4.2052 C.ar    1  UNL1        0.0215
     28 C          60.6987   90.6125    5.2805 C.ar    1  UNL1        0.0389
     29 S          61.0628   93.2499    2.3374 S.O2    1  UNL1        0.0105
     30 C          61.6743   94.0983    1.2621 C.3     1  UNL1        0.1816
     31 O          59.7818   94.0209    2.2173 O.2     1  UNL1       -0.1686
     32 O          62.3438   92.4788    2.4574 O.2     1  UNL1       -0.1686
@<TRIPOS>BOND
     1    19    20    1
     2    20    21    1
     3    20    18    1
     4    18    10    1
     5    10    11    2
     6    10    12   am
     7    12    13    1
     8    13    14    1
     9    14    15    1
    10    15     1    1
    11     1     2   ar
    12     2     3   ar
    13     3     4   ar
    14     4     5   ar
    15     5    22    1
    16    22    23    1
    17    23    24   ar
    18    24    25   ar
    19    25    26   ar
    20    26    29    1
    21    29    30    1
    22    29    31    2
    23    29    32    2
    24    26    27   ar
    25    27    28   ar
    26     5     6   ar
    27     6     7   ar
    28     7     8   ar
    29     8     9   ar
    30    15    16    1
    31    16    17    1
    32    17    12    1
    33     9     1   ar
    34     9     4   ar
    35    28    23   ar
@<TRIPOS>MOLECULE
*****
 32 35 0 0 0
SMALL
GASTEIGER

@<TRIPOS>ATOM
      1 N          63.0304   86.3573   11.9729 N.ar    1  UNL1       -0.2357
      2 N          63.7113   87.0578   13.1113 N.ar    1  UNL1       -0.1663
      3 C          63.4996   88.5329   12.9410 C.ar    1  UNL1        0.1279
      4 C          62.6879   88.7442   11.6973 C.ar    1  UNL1        0.1099
      5 C          62.1754   89.9873   11.0324 C.ar    1  UNL1        0.2355
      6 N          61.3729   89.8857    9.7692 N.ar    1  UNL1       -0.1889
      7 C          61.0830   88.5412    9.1710 C.ar    1  UNL1        0.2029
      8 N          61.5955   87.2981    9.8359 N.ar    1  UNL1       -0.2049
      9 C          62.3980   87.3996   11.0991 C.ar    1  UNL1        0.1671
     10 C          62.8657   80.4275   11.0728 C.2     1  UNL1        0.4048
     11 O          63.2560   79.8600    9.7402 O.2     1  UNL1       -0.2262
     12 N          62.9069   81.9099   11.2978 N.am    1  UNL1       -0.2459
     13 C          62.5166   82.4774   12.6303 C.3     1  UNL1        0.0987
     14 C          62.5578   83.9599   12.8554 C.3     1  UNL1        0.0461
     15 C          62.9892   84.8749   11.7479 C.3     1  UNL1        0.1102
     16 C          63.3795   84.3074   10.4154 C.3     1  UNL1        0.0461
     17 C          63.3383   82.8250   10.1903 C.3     1  UNL1        0.0987
     18 O          62.4342   79.5125   12.1803 O.3     1  UNL1       -0.4383
     19 C          63.4773   80.3550   14.4058 C.3     1  UNL1        0.0474
     20 C          62.2689   80.0461   13.5724 C.3     1  UNL1        0.1707
     21 C          60.8952   80.2707   14.1313 C.3     1  UNL1        0.0474
     22 O          62.4654   91.3319   11.6307 O.3     1  UNL1       -0.4359
     23 C          63.7709   91.5769   12.3276 C.ar    1  UNL1        0.1473
     24 C          63.9112   91.2661   13.7883 C.ar    1  UNL1        0.0389
     25 C          65.2167   91.5110   14.4852 C.ar    1  UNL1        0.0215
     26 C          66.3819   92.0669   13.7215 C.ar    1  UNL1        0.1059
     27 C          66.2416   92.3777   12.2607 C.ar    1  UNL1        0.0215
     28 C          64.9361   92.1328   11.5638 C.ar    1  UNL1        0.0389
     29 S          67.6874   92.3119   14.4184 S.O2    1  UNL1        0.0105
     30 C          68.9928   92.5568   15.1153 C.3     1  UNL1        0.1816
     31 O          68.4254   91.9412   13.1662 O.2     1  UNL1       -0.1686
     32 O          66.9494   92.6825   15.6705 O.2     1  UNL1       -0.1686
@<TRIPOS>BOND
     1    19    20    1
     2    20    21    1
     3    20    18    1
     4    18    10    1
     5    10    11    2
     6    10    12   am
     7    12    13    1
     8    13    14    1
     9    14    15    1
    10    15     1    1
    11     1     2   ar
    12     2     3   ar
    13     3     4   ar
    14     4     5   ar
    15     5    22    1
    16    22    23    1
    17    23    24   ar
    18    24    25   ar
    19    25    26   ar
    20    26    29    1
    21    29    30    1
    22    29    31    2
    23    29    32    2
    24    26    27   ar
    25    27    28   ar
    26     5     6   ar
    27     6     7   ar
    28     7     8   ar
    29     8     9   ar
    30    15    16    1
    31    16    17    1
    32    17    12    1
    33     9     1   ar
    34     9     4   ar
    35    28    23   ar
@<TRIPOS>MOLECULE
*****
 32 35 0 0 0
SMALL
GASTEIGER

@<TRIPOS>ATOM
      1 N          59.2745   90.3846    6.1317 N.ar    1  UNL1       -0.2357
      2 N          57.8432   90.7593    5.8847 N.ar    1  UNL1       -0.1663
      3 C          57.7962   91.6322    4.6658 C.ar    1  UNL1        0.1279
      4 C          59.1986   91.7970    4.1594 C.ar    1  UNL1        0.1099
      5 C          59.7617   92.5495    2.9904 C.ar    1  UNL1        0.2355
      6 N          61.2383   92.5310    2.7273 N.ar    1  UNL1       -0.1889
      7 C          62.1518   91.7600    3.6333 C.ar    1  UNL1        0.2029
      8 N          61.5888   91.0074    4.8023 N.ar    1  UNL1       -0.2049
      9 C          60.1122   91.0259    5.0654 C.ar    1  UNL1        0.1671
     10 C          61.2945   86.9275   10.6002 C.2     1  UNL1        0.4048
     11 O          61.8372   87.5569   11.8489 O.2     1  UNL1       -0.2262
     12 N          60.7895   87.7918    9.4831 N.am    1  UNL1       -0.2459
     13 C          60.2467   87.1623    8.2344 C.3     1  UNL1        0.0987
     14 C          59.7417   88.0266    7.1173 C.3     1  UNL1        0.0461
     15 C          59.7795   89.5203    7.2488 C.3     1  UNL1        0.1102
     16 C          60.3222   90.1498    8.4975 C.3     1  UNL1        0.0461
     17 C          60.8272   89.2855    9.6146 C.3     1  UNL1        0.0987
     18 O          61.2567   85.4338   10.4687 O.3     1  UNL1       -0.4383
     19 C          62.7396   84.2433   12.2391 C.3     1  UNL1        0.0474
     20 C          62.4687   84.6197   10.8125 C.3     1  UNL1        0.1707
     21 C          63.4101   84.1819    9.7298 C.3     1  UNL1        0.0474
     22 O          58.8480   93.3206    2.0844 O.3     1  UNL1       -0.4359
     23 C          59.2555   93.5980    0.6677 C.ar    1  UNL1        0.1473
     24 C          59.7386   94.9641    0.2800 C.ar    1  UNL1        0.0389
     25 C          60.1461   95.2414   -1.1367 C.ar    1  UNL1        0.0215
     26 C          60.0706   94.1526   -2.1657 C.ar    1  UNL1        0.1059
     27 C          59.5876   92.7864   -1.7780 C.ar    1  UNL1        0.0215
     28 C          59.1800   92.5091   -0.3613 C.ar    1  UNL1        0.0389
     29 S          60.4782   94.4299   -3.5824 S.O2    1  UNL1        0.0105
     30 C          60.8857   94.7072   -4.9991 C.3     1  UNL1        0.1816
     31 O          59.2268   95.2317   -3.7854 O.2     1  UNL1       -0.1686
     32 O          61.7295   93.6281   -3.3794 O.2     1  UNL1       -0.1686
@<TRIPOS>BOND
     1    19    20    1
     2    20    21    1
     3    20    18    1
     4    18    10    1
     5    10    11    2
     6    10    12   am
     7    12    13    1
     8    13    14    1
     9    14    15    1
    10    15     1    1
    11     1     2   ar
    12     2     3   ar
    13     3     4   ar
    14     4     5   ar
    15     5    22    1
    16    22    23    1
    17    23    24   ar
    18    24    25   ar
    19    25    26   ar
    20    26    29    1
    21    29    30    1
    22    29    31    2
    23    29    32    2
    24    26    27   ar
    25    27    28   ar
    26     5     6   ar
    27     6     7   ar
    28     7     8   ar
    29     8     9   ar
    30    15    16    1
    31    16    17    1
    32    17    12    1
    33     9     1   ar
    34     9     4   ar
    35    28    23   ar
@<TRIPOS>MOLECULE
*****
 32 35 0 0 0
SMALL
GASTEIGER

@<TRIPOS>ATOM
      1 N          62.9287   86.2342   12.1476 N.ar    1  UNL1       -0.2357
      2 N          63.6320   87.1712   13.0843 N.ar    1  UNL1       -0.1663
      3 C          63.3908   88.5723   12.6063 C.ar    1  UNL1        0.1279
      4 C          62.5382   88.5013   11.3741 C.ar    1  UNL1        0.1099
      5 C          61.9851   89.5658   10.4735 C.ar    1  UNL1        0.2355
      6 N          61.1464   89.1853    9.2896 N.ar    1  UNL1       -0.1889
      7 C          60.8609   87.7403    9.0062 C.ar    1  UNL1        0.2029
      8 N          61.4140   86.6758    9.9067 N.ar    1  UNL1       -0.2049
      9 C          62.2527   87.0563   11.0906 C.ar    1  UNL1        0.1671
     10 C          62.8354   80.2489   12.5570 C.2     1  UNL1        0.4048
     11 O          62.0636   79.5844   13.6582 O.2     1  UNL1       -0.2262
     12 N          62.8587   81.7452   12.4546 N.am    1  UNL1       -0.2459
     13 C          63.6304   82.4098   11.3534 C.3     1  UNL1        0.0987
     14 C          63.6537   83.9061   11.2510 C.3     1  UNL1        0.0461
     15 C          62.9053   84.7379   12.2499 C.3     1  UNL1        0.1102
     16 C          62.1336   84.0734   13.3512 C.3     1  UNL1        0.0461
     17 C          62.1103   82.5771   13.4535 C.3     1  UNL1        0.0987
     18 O          63.5838   79.4171   11.5580 O.3     1  UNL1       -0.4383
     19 C          62.2545   79.4925    9.3269 C.3     1  UNL1        0.0474
     20 C          62.8404   78.7093   10.4642 C.3     1  UNL1        0.1707
     21 C          62.6828   77.2183   10.5077 C.3     1  UNL1        0.0474
     22 O          62.2708   91.0108   10.7570 O.3     1  UNL1       -0.4359
     23 C          63.4783   91.3930   11.5606 C.ar    1  UNL1        0.1473
     24 C          63.4859   91.1885   13.0465 C.ar    1  UNL1        0.0389
     25 C          64.6935   91.5707   13.8500 C.ar    1  UNL1        0.0215
     26 C          65.8935   92.1574   13.1676 C.ar    1  UNL1        0.1059
     27 C          65.8859   92.3621   11.6816 C.ar    1  UNL1        0.0215
     28 C          64.6783   91.9799   10.8781 C.ar    1  UNL1        0.0389
     29 S          67.1011   92.5396   13.9712 S.O2    1  UNL1        0.0105
     30 C          68.3086   92.9218   14.7747 C.3     1  UNL1        0.1816
     31 O          66.2130   93.1420   15.0193 O.2     1  UNL1       -0.1686
     32 O          67.9891   91.9373   12.9231 O.2     1  UNL1       -0.1686
@<TRIPOS>BOND
     1    19    20    1
     2    20    21    1
     3    20    18    1
     4    18    10    1
     5    10    11    2
     6    10    12   am
     7    12    13    1
     8    13    14    1
     9    14    15    1
    10    15     1    1
    11     1     2   ar
    12     2     3   ar
    13     3     4   ar
    14     4     5   ar
    15     5    22    1
    16    22    23    1
    17    23    24   ar
    18    24    25   ar
    19    25    26   ar
    20    26    29    1
    21    29    30    1
    22    29    31    2
    23    29    32    2
    24    26    27   ar
    25    27    28   ar
    26     5     6   ar
    27     6     7   ar
    28     7     8   ar
    29     8     9   ar
    30    15    16    1
    31    16    17    1
    32    17    12    1
    33     9     1   ar
    34     9     4   ar
    35    28    23   ar
