@<TRIPOS>MOLECULE
*****
 18 20 0 0 0
SMALL
GASTEIGER

@<TRIPOS>ATOM
      1 C          66.1262   93.2862   12.6880 C.2     1  UNL1        0.0398
      2 C          66.7560   93.3314   14.0486 C.2     1  UNL1        0.1000
      3 N          66.1649   92.2241   14.8699 N.2     1  UNL1       -0.2477
      4 C          65.1699   91.4946   14.0168 C.2     1  UNL1        0.0656
      5 C          64.2826   90.3173   14.2937 C.3     1  UNL1        0.0723
      6 C          63.3712   89.7965   13.2221 C.2     1  UNL1       -0.0118
      7 C          63.3473   90.4530   11.8736 C.2     1  UNL1        0.0536
      8 I          62.4361   89.9322   10.8020 I       1  UNL1       -0.0405
      9 C          64.2347   91.6302   11.5967 C.2     1  UNL1        0.1463
     10 F          64.2108   92.2867   10.2482 F       1  UNL1       -0.2037
     11 C          65.1460   92.1510   12.6683 C.2     1  UNL1        0.0447
     12 N          67.1096   93.8425   10.2655 N.ar    1  UNL1       -0.3090
     13 C          67.1983   95.0742    9.4140 C.ar    1  UNL1        0.1786
     14 N          66.5680   96.2065   10.1695 N.ar    1  UNL1       -0.2223
     15 C          66.0897   95.6745   11.4880 C.ar    1  UNL1        0.1178
     16 C          66.4244   94.2135   11.5472 C.ar    1  UNL1        0.0820
     17 C          68.7426   92.3363    8.9183 C.3     1  UNL1        0.0265
     18 C          67.6169   92.4793    9.8994 C.3     1  UNL1        0.1077
@<TRIPOS>BOND
     1    17    18    1
     2    18    12    1
     3    12    13   ar
     4    13    14   ar
     5    14    15   ar
     6    15    16   ar
     7    16     1    1
     8     1     2    2
     9     2     3    1
    10     3     4    2
    11     4     5    1
    12     5     6    1
    13     6     7    2
    14     7     8    1
    15     7     9    1
    16     9    10    1
    17     9    11    2
    18    16    12   ar
    19    11     1    1
    20    11     4    1
@<TRIPOS>MOLECULE
*****
 18 20 0 0 0
SMALL
GASTEIGER

@<TRIPOS>ATOM
      1 C          63.5402   83.8862   11.9850 C.2     1  UNL1        0.0398
      2 C          64.5315   82.8927   11.4555 C.2     1  UNL1        0.1000
      3 N          64.5320   82.9911    9.9588 N.2     1  UNL1       -0.2477
      4 C          63.5410   84.0454    9.5631 C.2     1  UNL1        0.0656
      5 C          63.1177   84.5731    8.2244 C.3     1  UNL1        0.0723
      6 C          62.0812   85.6541    8.1379 C.2     1  UNL1       -0.0118
      7 C          61.4682   86.2072    9.3902 C.2     1  UNL1        0.0536
      8 I          60.4318   87.2881    9.3038 I       1  UNL1       -0.0405
      9 C          61.8916   85.6795   10.7290 C.2     1  UNL1        0.1463
     10 F          61.2786   86.2326   11.9813 F       1  UNL1       -0.2037
     11 C          62.9280   84.5986   10.8154 C.2     1  UNL1        0.0447
     12 N          62.4449   83.2025   14.3255 N.ar    1  UNL1       -0.3090
     13 C          62.3608   83.8360   15.6825 C.ar    1  UNL1        0.1786
     14 N          63.0814   85.1504   15.6260 N.ar    1  UNL1       -0.2223
     15 C          63.6110   85.3292   14.2339 C.ar    1  UNL1        0.1178
     16 C          63.2176   84.1253   13.4302 C.ar    1  UNL1        0.0820
     17 C          62.7489   80.6805   13.7801 C.3     1  UNL1        0.0265
     18 C          61.8593   81.8786   13.9327 C.3     1  UNL1        0.1077
@<TRIPOS>BOND
     1    17    18    1
     2    18    12    1
     3    12    13   ar
     4    13    14   ar
     5    14    15   ar
     6    15    16   ar
     7    16     1    1
     8     1     2    2
     9     2     3    1
    10     3     4    2
    11     4     5    1
    12     5     6    1
    13     6     7    2
    14     7     8    1
    15     7     9    1
    16     9    10    1
    17     9    11    2
    18    16    12   ar
    19    11     1    1
    20    11     4    1
@<TRIPOS>MOLECULE
*****
 18 20 0 0 0
SMALL
GASTEIGER

@<TRIPOS>ATOM
      1 C          63.5837   85.2147   13.7969 C.2     1  UNL1        0.0398
      2 C          64.3504   85.9945   14.8236 C.2     1  UNL1        0.1000
      3 N          64.3296   87.4388   14.4193 N.2     1  UNL1       -0.2477
      4 C          63.5500   87.5517   13.1427 C.2     1  UNL1        0.0656
      5 C          63.2003   88.7285   12.2810 C.3     1  UNL1        0.0723
      6 C          62.3896   88.5308   11.0344 C.2     1  UNL1       -0.0118
      7 C          61.9286   87.1562   10.6498 C.2     1  UNL1        0.0536
      8 I          61.1179   86.9585    9.4034 I       1  UNL1       -0.0405
      9 C          62.2783   85.9793   11.5117 C.2     1  UNL1        0.1463
     10 F          61.8172   84.6047   11.1271 F       1  UNL1       -0.2037
     11 C          63.0889   86.1771   12.7581 C.2     1  UNL1        0.0447
     12 N          63.8495   82.7556   12.7835 N.ar    1  UNL1       -0.3090
     13 C          63.3875   81.3866   13.1866 C.ar    1  UNL1        0.1786
     14 N          62.6046   81.5176   14.4595 N.ar    1  UNL1       -0.2223
     15 C          62.5828   82.9677   14.8430 C.ar    1  UNL1        0.1178
     16 C          63.3522   83.7327   13.8072 C.ar    1  UNL1        0.0820
     17 C          64.2222   82.6193   10.2159 C.3     1  UNL1        0.0265
     18 C          64.6655   83.0888   11.5699 C.3     1  UNL1        0.1077
@<TRIPOS>BOND
     1    17    18    1
     2    18    12    1
     3    12    13   ar
     4    13    14   ar
     5    14    15   ar
     6    15    16   ar
     7    16     1    1
     8     1     2    2
     9     2     3    1
    10     3     4    2
    11     4     5    1
    12     5     6    1
    13     6     7    2
    14     7     8    1
    15     7     9    1
    16     9    10    1
    17     9    11    2
    18    16    12   ar
    19    11     1    1
    20    11     4    1
@<TRIPOS>MOLECULE
*****
 18 20 0 0 0
SMALL
GASTEIGER

@<TRIPOS>ATOM
      1 C          65.0917   92.7634   10.9843 C.2     1  UNL1        0.0398
      2 C          64.0130   91.9493   10.3333 C.2     1  UNL1        0.1000
      3 N          63.4736   90.9930   11.3553 N.2     1  UNL1       -0.2477
      4 C          64.2189   91.2159   12.6378 C.2     1  UNL1        0.0656
      5 C          64.1162   90.5640   13.9848 C.3     1  UNL1        0.0723
      6 C          65.0135   91.0063   15.1025 C.2     1  UNL1       -0.0118
      7 C          66.0136   92.1005   14.8732 C.2     1  UNL1        0.0536
      8 I          66.9109   92.5427   15.9908 I       1  UNL1       -0.0405
      9 C          66.1163   92.7524   13.5261 C.2     1  UNL1        0.1463
     10 F          67.1163   93.8466   13.2968 F       1  UNL1       -0.2037
     11 C          65.2190   92.3101   12.4085 C.2     1  UNL1        0.0447
     12 N          67.2780   93.6842    9.7526 N.ar    1  UNL1       -0.3090
     13 C          67.7035   95.0116    9.1985 C.ar    1  UNL1        0.1786
     14 N          66.5896   95.9892    9.4299 N.ar    1  UNL1       -0.2223
     15 C          65.4756   95.2660   10.1271 C.ar    1  UNL1        0.1178
     16 C          65.9010   93.8415   10.3264 C.ar    1  UNL1        0.0820
     17 C          68.9132   92.0759    8.5321 C.3     1  UNL1        0.0265
     18 C          68.0873   92.4215    9.7357 C.3     1  UNL1        0.1077
@<TRIPOS>BOND
     1    17    18    1
     2    18    12    1
     3    12    13   ar
     4    13    14   ar
     5    14    15   ar
     6    15    16   ar
     7    16     1    1
     8     1     2    2
     9     2     3    1
    10     3     4    2
    11     4     5    1
    12     5     6    1
    13     6     7    2
    14     7     8    1
    15     7     9    1
    16     9    10    1
    17     9    11    2
    18    16    12   ar
    19    11     1    1
    20    11     4    1
@<TRIPOS>MOLECULE
*****
 18 20 0 0 0
SMALL
GASTEIGER

@<TRIPOS>ATOM
      1 C          62.5114   85.8143   11.7912 C.2     1  UNL1        0.0398
      2 C          61.7256   85.5573   10.5396 C.2     1  UNL1        0.1000
      3 N          61.4836   86.8753    9.8655 N.2     1  UNL1       -0.2477
      4 C          62.1197   87.9468   10.7004 C.2     1  UNL1        0.0656
      5 C          62.2026   89.4348   10.5307 C.3     1  UNL1        0.0723
      6 C          62.9208   90.2672   11.5513 C.2     1  UNL1       -0.0118
      7 C          63.5561   89.6115   12.7414 C.2     1  UNL1        0.0536
      8 I          64.2742   90.4439   13.7619 I       1  UNL1       -0.0405
      9 C          63.4731   88.1234   12.9111 C.2     1  UNL1        0.1463
     10 F          64.1084   87.4677   14.1012 F       1  UNL1       -0.2037
     11 C          62.7550   87.2911   11.8906 C.2     1  UNL1        0.0447
     12 N          63.8973   83.6334   12.4750 N.ar    1  UNL1       -0.3090
     13 C          64.0864   82.8503   13.7404 C.ar    1  UNL1        0.1786
     14 N          63.2786   83.5097   14.8187 N.ar    1  UNL1       -0.2223
     15 C          62.5903   84.7004   14.2197 C.ar    1  UNL1        0.1178
     16 C          62.9727   84.7767   12.7713 C.ar    1  UNL1        0.0820
     17 C          63.9499   82.2453   10.2794 C.3     1  UNL1        0.0265
     18 C          64.5229   83.3268   11.1467 C.3     1  UNL1        0.1077
@<TRIPOS>BOND
     1    17    18    1
     2    18    12    1
     3    12    13   ar
     4    13    14   ar
     5    14    15   ar
     6    15    16   ar
     7    16     1    1
     8     1     2    2
     9     2     3    1
    10     3     4    2
    11     4     5    1
    12     5     6    1
    13     6     7    2
    14     7     8    1
    15     7     9    1
    16     9    10    1
    17     9    11    2
    18    16    12   ar
    19    11     1    1
    20    11     4    1
@<TRIPOS>MOLECULE
*****
 18 20 0 0 0
SMALL
GASTEIGER

@<TRIPOS>ATOM
      1 C          65.3791   92.4237   11.0045 C.2     1  UNL1        0.0398
      2 C          64.1526   91.7898   10.4183 C.2     1  UNL1        0.1000
      3 N          63.3924   91.1337   11.5326 N.2     1  UNL1       -0.2477
      4 C          64.1491   91.3621   12.8074 C.2     1  UNL1        0.0656
      5 C          63.8786   90.9471   14.2232 C.3     1  UNL1        0.0723
      6 C          64.8361   91.3294   15.3128 C.2     1  UNL1       -0.0118
      7 C          66.0640   92.1268   14.9865 C.2     1  UNL1        0.0536
      8 I          67.0215   92.5091   16.0760 I       1  UNL1       -0.0405
      9 C          66.3344   92.5417   13.5706 C.2     1  UNL1        0.1463
     10 F          67.5624   93.3391   13.2442 F       1  UNL1       -0.2037
     11 C          65.3770   92.1594   12.4811 C.2     1  UNL1        0.0447
     12 N          66.4330   94.6684   10.0067 N.ar    1  UNL1       -0.3090
     13 C          67.6584   95.0012    9.2083 C.ar    1  UNL1        0.1786
     14 N          68.4073   93.7263    8.9553 N.ar    1  UNL1       -0.2223
     15 C          67.6445   92.6056    9.5974 C.ar    1  UNL1        0.1178
     16 C          66.4244   93.1879   10.2472 C.ar    1  UNL1        0.0820
     17 C          65.8052   96.8239   11.3144 C.3     1  UNL1        0.0265
     18 C          65.3979   95.6448   10.4813 C.3     1  UNL1        0.1077
@<TRIPOS>BOND
     1    17    18    1
     2    18    12    1
     3    12    13   ar
     4    13    14   ar
     5    14    15   ar
     6    15    16   ar
     7    16     1    1
     8     1     2    2
     9     2     3    1
    10     3     4    2
    11     4     5    1
    12     5     6    1
    13     6     7    2
    14     7     8    1
    15     7     9    1
    16     9    10    1
    17     9    11    2
    18    16    12   ar
    19    11     1    1
    20    11     4    1
@<TRIPOS>MOLECULE
*****
 18 20 0 0 0
SMALL
GASTEIGER

@<TRIPOS>ATOM
      1 C          62.4240   85.9678    9.9363 C.2     1  UNL1        0.0398
      2 C          62.8175   85.7401    8.5069 C.2     1  UNL1        0.1000
      3 N          63.4602   84.3880    8.4129 N.2     1  UNL1       -0.2477
      4 C          63.4639   83.7802    9.7843 C.2     1  UNL1        0.0656
      5 C          63.9678   82.4638   10.2972 C.3     1  UNL1        0.0723
      6 C          63.8312   82.1237   11.7518 C.2     1  UNL1       -0.0118
      7 C          63.1907   83.1001   12.6934 C.2     1  UNL1        0.0536
      8 I          63.0541   82.7601   14.1479 I       1  UNL1       -0.0405
      9 C          62.6869   84.4166   12.1803 C.2     1  UNL1        0.1463
     10 F          62.0465   85.3930   13.1219 F       1  UNL1       -0.2037
     11 C          62.8235   84.7566   10.7258 C.2     1  UNL1        0.0447
     12 N          60.3987   87.7064   10.0796 N.ar    1  UNL1       -0.3090
     13 C          60.1215   88.9489   10.8728 C.ar    1  UNL1        0.1786
     14 N          61.3009   89.2025   11.7644 N.ar    1  UNL1       -0.2223
     15 C          62.3070   88.1165   11.5220 C.ar    1  UNL1        0.1178
     16 C          61.7494   87.1920   10.4808 C.ar    1  UNL1        0.0820
     17 C          59.3638   87.6926    7.6965 C.3     1  UNL1        0.0265
     18 C          59.4855   87.0871    9.0635 C.3     1  UNL1        0.1077
@<TRIPOS>BOND
     1    17    18    1
     2    18    12    1
     3    12    13   ar
     4    13    14   ar
     5    14    15   ar
     6    15    16   ar
     7    16     1    1
     8     1     2    2
     9     2     3    1
    10     3     4    2
    11     4     5    1
    12     5     6    1
    13     6     7    2
    14     7     8    1
    15     7     9    1
    16     9    10    1
    17     9    11    2
    18    16    12   ar
    19    11     1    1
    20    11     4    1
@<TRIPOS>MOLECULE
*****
 18 20 0 0 0
SMALL
GASTEIGER

@<TRIPOS>ATOM
      1 C          62.5456   89.8913   11.5255 C.2     1  UNL1        0.0398
      2 C          61.7262   90.5927   10.4832 C.2     1  UNL1        0.1000
      3 N          61.0192   89.5493    9.6699 N.2     1  UNL1       -0.2477
      4 C          61.4017   88.2030   10.2096 C.2     1  UNL1        0.0656
      5 C          61.0128   86.8120    9.8050 C.3     1  UNL1        0.0723
      6 C          61.5674   85.6322   10.5472 C.2     1  UNL1       -0.0118
      7 C          62.5108   85.8436   11.6940 C.2     1  UNL1        0.0536
      8 I          63.0654   84.6640   12.4362 I       1  UNL1       -0.0405
      9 C          62.8997   87.2348   12.0987 C.2     1  UNL1        0.1463
     10 F          63.8431   87.4462   13.2455 F       1  UNL1       -0.2037
     11 C          62.3451   88.4144   11.3565 C.2     1  UNL1        0.0447
     12 N          64.5004   91.5484   12.2855 N.ar    1  UNL1       -0.3090
     13 C          65.1052   91.9429   13.6002 C.ar    1  UNL1        0.1786
     14 N          64.3919   91.1893   14.6834 N.ar    1  UNL1       -0.2223
     15 C          63.3462   90.3290   14.0380 C.ar    1  UNL1        0.1178
     16 C          63.4133   90.5510   12.5561 C.ar    1  UNL1        0.0820
     17 C          65.5943   93.3912   10.8165 C.3     1  UNL1        0.0265
     18 C          64.9108   92.0613   10.9370 C.3     1  UNL1        0.1077
@<TRIPOS>BOND
     1    17    18    1
     2    18    12    1
     3    12    13   ar
     4    13    14   ar
     5    14    15   ar
     6    15    16   ar
     7    16     1    1
     8     1     2    2
     9     2     3    1
    10     3     4    2
    11     4     5    1
    12     5     6    1
    13     6     7    2
    14     7     8    1
    15     7     9    1
    16     9    10    1
    17     9    11    2
    18    16    12   ar
    19    11     1    1
    20    11     4    1
@<TRIPOS>MOLECULE
*****
 18 20 0 0 0
SMALL
GASTEIGER

@<TRIPOS>ATOM
      1 C          62.7103   86.8951   11.8376 C.2     1  UNL1        0.0398
      2 C          63.2064   88.1654   12.4624 C.2     1  UNL1        0.1000
      3 N          63.9597   87.8055   13.7086 N.2     1  UNL1       -0.2477
      4 C          63.9292   86.3129   13.8540 C.2     1  UNL1        0.0656
      5 C          64.5047   85.3935   14.8900 C.3     1  UNL1        0.0723
      6 C          64.3082   83.9112   14.7696 C.2     1  UNL1       -0.0118
      7 C          63.5361   83.3485   13.6133 C.2     1  UNL1        0.0536
      8 I          63.3395   81.8664   13.4929 I       1  UNL1       -0.0405
      9 C          62.9605   84.2681   12.5773 C.2     1  UNL1        0.1463
     10 F          62.1883   83.7054   11.4209 F       1  UNL1       -0.2037
     11 C          63.1570   85.7502   12.6977 C.2     1  UNL1        0.0447
     12 N          60.5815   87.4381   10.3151 N.ar    1  UNL1       -0.3090
     13 C          60.1455   87.0645    8.9293 C.ar    1  UNL1        0.1786
     14 N          61.2029   86.1839    8.3322 N.ar    1  UNL1       -0.2223
     15 C          62.2925   86.0133    9.3490 C.ar    1  UNL1        0.1178
     16 C          61.9084   86.7884   10.5745 C.ar    1  UNL1        0.0820
     17 C          60.0175   89.7957   11.2498 C.3     1  UNL1        0.0265
     18 C          59.8236   88.3084   11.2731 C.3     1  UNL1        0.1077
@<TRIPOS>BOND
     1    17    18    1
     2    18    12    1
     3    12    13   ar
     4    13    14   ar
     5    14    15   ar
     6    15    16   ar
     7    16     1    1
     8     1     2    2
     9     2     3    1
    10     3     4    2
    11     4     5    1
    12     5     6    1
    13     6     7    2
    14     7     8    1
    15     7     9    1
    16     9    10    1
    17     9    11    2
    18    16    12   ar
    19    11     1    1
    20    11     4    1
