@<TRIPOS>MOLECULE
*****
 46 49 0 0 0
SMALL
GASTEIGER

@<TRIPOS>ATOM
      1 C          62.1715   87.5109   11.0867 C.ar    1  UNL1        0.0703
      2 C          62.3986   88.9571   11.4136 C.ar    1  UNL1        0.0465
      3 C          61.8039   90.0249   10.5441 C.3     1  UNL1        0.0503
      4 N          63.2204   89.3355   12.6101 N.ar    1  UNL1       -0.2806
      5 C          63.8150   88.2676   13.4796 C.ar    1  UNL1        0.3338
      6 O          64.3671   88.3979   14.2838 O.2     1  UNL1       -0.2462
      7 N          63.5879   86.8213   13.1526 N.ar    1  UNL1       -0.2470
      8 C          62.7661   86.4430   11.9562 C.ar    1  UNL1        0.2654
      9 O          62.5390   84.9968   11.6292 O.2     1  UNL1       -0.2668
     10 C          61.1473   85.9672    7.5770 C.ar    1  UNL1        0.1660
     11 C          59.7062   86.3757    7.4973 C.ar    1  UNL1        0.0392
     12 C          59.0869   87.1626    8.6140 C.ar    1  UNL1        0.0033
     13 C          59.9086   87.5410    9.8105 C.ar    1  UNL1        0.0026
     14 C          61.3497   87.1325    9.8902 C.ar    1  UNL1        0.0362
     15 C          61.9690   86.3456    8.7734 C.ar    1  UNL1        0.1739
     16 F          63.4102   85.9370    8.8532 F       1  UNL1       -0.2010
     17 C          61.0967   83.9356    5.9583 C.3     1  UNL1        0.2526
     18 O          61.7666   85.1803    6.4602 O.3     1  UNL1       -0.4692
     19 C          63.4475   90.7816   12.9371 C.3     1  UNL1        0.1391
     20 C          64.6004   91.5176   12.3215 C.ar    1  UNL1        0.0319
     21 C          64.6051   91.8079   10.8498 C.ar    1  UNL1        0.1379
     22 F          63.9109   91.5651   10.1960 F       1  UNL1       -0.2044
     23 C          65.7582   92.5439   10.2343 C.ar    1  UNL1        0.0294
     24 C          66.9064   92.9896   11.0903 C.ar    1  UNL1        0.0022
     25 C          66.9017   92.6993   12.5619 C.ar    1  UNL1        0.0037
     26 C          65.7488   91.9633   13.1775 C.ar    1  UNL1        0.0714
     27 C          65.7441   91.6730   14.6492 C.3     1  UNL1        0.4184
     28 F          65.7393   91.3827   16.1208 F       1  UNL1       -0.1659
     29 F          66.1690   90.2614   14.3721 F       1  UNL1       -0.1659
     30 F          65.3191   93.0846   14.9262 F       1  UNL1       -0.1659
     31 C          64.1826   85.7535   14.0221 C.3     1  UNL1        0.1337
     32 C          63.2903   84.7633   14.7101 C.3     1  UNL1        0.1000
     33 C          63.1675   83.3669   14.1761 C.ar    1  UNL1       -0.0061
     34 C          64.1974   82.8345   13.2244 C.ar    1  UNL1       -0.0029
     35 C          64.0745   81.4382   12.6904 C.ar    1  UNL1       -0.0003
     36 C          62.9217   80.5742   13.1082 C.ar    1  UNL1       -0.0000
     37 C          61.8917   81.1066   14.0599 C.ar    1  UNL1       -0.0003
     38 C          62.0146   82.5029   14.5939 C.ar    1  UNL1       -0.0029
     39 N          62.5209   85.1694   15.9321 N.3     1  UNL1       -0.2935
     40 H          62.1694   84.3114   16.3573 H       1  UNL1        0.1236
     41 C          63.1988   85.9464   17.0213 C.3     1  UNL1        0.0692
     42 C          62.5522   87.1811   17.5757 C.3     1  UNL1        0.0230
     43 C          63.2300   88.5116   17.4322 C.3     1  UNL1        0.0431
     44 C          62.5722   89.6076   16.6473 C.2     1  UNL1        0.0504
     45 O          61.3653   89.3088   15.8082 O.co2   1  UNL1       -0.5492
     46 O          63.1213   91.0025   16.7015 O.co2   1  UNL1       -0.5492
@<TRIPOS>UNITY_ATOM_ATTR
46 1
charge -1
@<TRIPOS>BOND
     1    17    18    1
     2    18    10    1
     3    10    11   ar
     4    11    12   ar
     5    12    13   ar
     6    13    14   ar
     7    14     1    1
     8     1     2   ar
     9     2     3    1
    10     2     4   ar
    11     4    19    1
    12    19    20    1
    13    20    21   ar
    14    21    22    1
    15    21    23   ar
    16    23    24   ar
    17    24    25   ar
    18    25    26   ar
    19    26    27    1
    20    27    28    1
    21    27    29    1
    22    27    30    1
    23     4     5   ar
    24     5     6    2
    25     5     7   ar
    26     7    31    1
    27    32    31    1
    28    32    39    1
    29    39    41    1
    30    41    42    1
    31    42    43    1
    32    43    44    1
    33    44    45   ar
    34    44    46   ar
    35    32    33    1
    36    33    34   ar
    37    34    35   ar
    38    35    36   ar
    39    36    37   ar
    40    37    38   ar
    41     7     8   ar
    42     8     9    2
    43    14    15   ar
    44    15    16    1
    45    15    10   ar
    46     8     1   ar
    47    26    20   ar
    48    38    33   ar
    49    39    40    1
@<TRIPOS>MOLECULE
*****
 46 49 0 0 0
SMALL
GASTEIGER

@<TRIPOS>ATOM
      1 C          62.2161   87.1335   11.0274 C.ar    1  UNL1        0.0703
      2 C          62.3932   88.5686   11.4264 C.ar    1  UNL1        0.0465
      3 C          61.8314   89.6611   10.5658 C.3     1  UNL1        0.0503
      4 N          63.1320   88.9111   12.6862 N.ar    1  UNL1       -0.2806
      5 C          63.6938   87.8185   13.5468 C.ar    1  UNL1        0.3338
      6 O          64.1927   87.9248   14.3884 O.2     1  UNL1       -0.2462
      7 N          63.5168   86.3834   13.1477 N.ar    1  UNL1       -0.2470
      8 C          62.7779   86.0409   11.8880 C.ar    1  UNL1        0.2654
      9 O          62.6008   84.6058   11.4889 O.2     1  UNL1       -0.2668
     10 C          61.4248   85.6721    7.4235 C.ar    1  UNL1        0.1660
     11 C          59.9997   86.1059    7.2483 C.ar    1  UNL1        0.0392
     12 C          59.3133   86.8823    8.3329 C.ar    1  UNL1        0.0033
     13 C          60.0521   87.2249    9.5925 C.ar    1  UNL1        0.0026
     14 C          61.4772   86.7910    9.7677 C.ar    1  UNL1        0.0362
     15 C          62.1636   86.0146    8.6832 C.ar    1  UNL1        0.1739
     16 F          63.5888   85.5807    8.8584 F       1  UNL1       -0.2010
     17 C          61.3381   83.9015    5.5242 C.3     1  UNL1        0.2526
     18 O          62.1111   84.8957    6.3390 O.3     1  UNL1       -0.4692
     19 C          63.3091   90.3461   13.0852 C.3     1  UNL1        0.1391
     20 C          64.6826   90.9467   13.1349 C.ar    1  UNL1        0.0319
     21 C          65.5544   90.7269   14.3356 C.ar    1  UNL1        0.1379
     22 F          65.3313   90.2103   15.1429 F       1  UNL1       -0.2044
     23 C          66.9280   91.3276   14.3853 C.ar    1  UNL1        0.0294
     24 C          67.4299   92.1480   13.2342 C.ar    1  UNL1        0.0022
     25 C          66.5581   92.3678   12.0334 C.ar    1  UNL1        0.0037
     26 C          65.1846   91.7672   11.9838 C.ar    1  UNL1        0.0714
     27 C          64.3128   91.9870   10.7830 C.3     1  UNL1        0.4184
     28 F          63.4411   92.2068    9.5823 F       1  UNL1       -0.1659
     29 F          65.5177   91.9049    9.8933 F       1  UNL1       -0.1659
     30 F          63.1080   92.0691   11.6727 F       1  UNL1       -0.1659
     31 C          64.0786   85.2908   14.0083 C.3     1  UNL1        0.1337
     32 C          63.1555   84.3851   14.7682 C.3     1  UNL1        0.1000
     33 C          62.9212   82.9822   14.2920 C.ar    1  UNL1       -0.0061
     34 C          63.9958   82.2569   13.5376 C.ar    1  UNL1       -0.0029
     35 C          63.7614   80.8540   13.0613 C.ar    1  UNL1       -0.0003
     36 C          62.4525   80.1763   13.3394 C.ar    1  UNL1       -0.0000
     37 C          61.3778   80.9016   14.0938 C.ar    1  UNL1       -0.0003
     38 C          61.6121   82.3045   14.5701 C.ar    1  UNL1       -0.0029
     39 N          62.4667   84.8823   16.0046 N.3     1  UNL1       -0.2935
     40 H          62.2145   84.0596   16.5522 H       1  UNL1        0.1236
     41 C          63.1787   85.8198   16.9342 C.3     1  UNL1        0.0692
     42 C          62.4646   87.0205   17.4804 C.3     1  UNL1        0.0230
     43 C          63.1563   88.3509   17.5197 C.3     1  UNL1        0.0431
     44 C          62.6111   89.5033   16.7293 C.2     1  UNL1        0.0504
     45 O          61.4128   89.3084   15.8484 O.co2   1  UNL1       -0.5492
     46 O          63.2643   90.8507   16.8198 O.co2   1  UNL1       -0.5492
@<TRIPOS>UNITY_ATOM_ATTR
46 1
charge -1
@<TRIPOS>BOND
     1    17    18    1
     2    18    10    1
     3    10    11   ar
     4    11    12   ar
     5    12    13   ar
     6    13    14   ar
     7    14     1    1
     8     1     2   ar
     9     2     3    1
    10     2     4   ar
    11     4    19    1
    12    19    20    1
    13    20    21   ar
    14    21    22    1
    15    21    23   ar
    16    23    24   ar
    17    24    25   ar
    18    25    26   ar
    19    26    27    1
    20    27    28    1
    21    27    29    1
    22    27    30    1
    23     4     5   ar
    24     5     6    2
    25     5     7   ar
    26     7    31    1
    27    32    31    1
    28    32    39    1
    29    39    41    1
    30    41    42    1
    31    42    43    1
    32    43    44    1
    33    44    45   ar
    34    44    46   ar
    35    32    33    1
    36    33    34   ar
    37    34    35   ar
    38    35    36   ar
    39    36    37   ar
    40    37    38   ar
    41     7     8   ar
    42     8     9    2
    43    14    15   ar
    44    15    16    1
    45    15    10   ar
    46     8     1   ar
    47    26    20   ar
    48    38    33   ar
    49    39    40    1
@<TRIPOS>MOLECULE
*****
 46 49 0 0 0
SMALL
GASTEIGER

@<TRIPOS>ATOM
      1 C          63.2410   88.1449   13.5121 C.ar    1  UNL1        0.0703
      2 C          63.9471   86.8342   13.6948 C.ar    1  UNL1        0.0465
      3 C          65.0644   86.7163   14.6887 C.3     1  UNL1        0.0503
      4 N          63.5359   85.6413   12.8836 N.ar    1  UNL1       -0.2806
      5 C          62.4186   85.7592   11.8897 C.ar    1  UNL1        0.3338
      6 O          62.0666   85.0484   11.3072 O.2     1  UNL1       -0.2462
      7 N          61.7125   87.0700   11.7070 N.ar    1  UNL1       -0.2470
      8 C          62.1238   88.2628   12.5182 C.ar    1  UNL1        0.2654
      9 O          61.4177   89.5736   12.3355 O.2     1  UNL1       -0.2668
     10 C          64.7875   91.6695   14.4795 C.ar    1  UNL1        0.1660
     11 C          64.4746   91.7236   15.9455 C.ar    1  UNL1        0.0392
     12 C          63.7505   90.5848   16.6003 C.ar    1  UNL1        0.0033
     13 C          63.3393   89.3919   15.7892 C.ar    1  UNL1        0.0026
     14 C          63.6522   89.3378   14.3233 C.ar    1  UNL1        0.0362
     15 C          64.3763   90.4766   13.6684 C.ar    1  UNL1        0.1739
     16 F          64.6892   90.4225   12.2023 F       1  UNL1       -0.2010
     17 C          66.7179   93.4083   14.4840 C.3     1  UNL1        0.2526
     18 O          65.5116   92.8083   13.8246 O.3     1  UNL1       -0.4692
     19 C          64.2419   84.3306   13.0663 C.3     1  UNL1        0.1391
     20 C          63.4497   83.0631   13.1923 C.ar    1  UNL1        0.0319
     21 C          63.5200   82.0242   12.1126 C.ar    1  UNL1        0.1379
     22 F          64.0484   82.0665   11.2835 F       1  UNL1       -0.2044
     23 C          62.7277   80.7567   12.2387 C.ar    1  UNL1        0.0294
     24 C          61.8652   80.5282   13.4444 C.ar    1  UNL1        0.0022
     25 C          61.7948   81.5671   14.5241 C.ar    1  UNL1        0.0037
     26 C          62.5871   82.8346   14.3981 C.ar    1  UNL1        0.0714
     27 C          62.5168   83.8735   15.4778 C.3     1  UNL1        0.4184
     28 F          62.4464   84.9124   16.5574 F       1  UNL1       -0.1659
     29 F          61.2210   84.3741   14.9117 F       1  UNL1       -0.1659
     30 F          63.8125   83.3728   16.0438 F       1  UNL1       -0.1659
     31 C          60.5953   87.1879   10.7132 C.3     1  UNL1        0.1337
     32 C          60.8964   87.5232    9.2825 C.3     1  UNL1        0.1000
     33 C          61.3155   86.4420    8.3310 C.ar    1  UNL1       -0.0061
     34 C          62.7348   85.9569    8.3250 C.ar    1  UNL1       -0.0029
     35 C          63.1539   84.8758    7.3734 C.ar    1  UNL1       -0.0003
     36 C          62.1536   84.2797    6.4279 C.ar    1  UNL1       -0.0000
     37 C          60.7341   84.7648    6.4338 C.ar    1  UNL1       -0.0003
     38 C          60.3151   85.8460    7.3854 C.ar    1  UNL1       -0.0029
     39 N          60.7785   88.9398    8.8033 N.3     1  UNL1       -0.2935
     40 H          61.5315   89.0869    8.1313 H       1  UNL1        0.1236
     41 C          59.5137   89.4061    8.1454 C.3     1  UNL1        0.0692
     42 C          59.3479   89.2739    6.6605 C.3     1  UNL1        0.0230
     43 C          59.6534   90.4379    5.7651 C.3     1  UNL1        0.0431
     44 C          58.5344   91.2390    5.1684 C.2     1  UNL1        0.0504
     45 O          58.8393   92.3834    4.2478 O.co2   1  UNL1       -0.5492
     46 O          57.1105   90.8957    5.4921 O.co2   1  UNL1       -0.5492
@<TRIPOS>UNITY_ATOM_ATTR
46 1
charge -1
@<TRIPOS>BOND
     1    17    18    1
     2    18    10    1
     3    10    11   ar
     4    11    12   ar
     5    12    13   ar
     6    13    14   ar
     7    14     1    1
     8     1     2   ar
     9     2     3    1
    10     2     4   ar
    11     4    19    1
    12    19    20    1
    13    20    21   ar
    14    21    22    1
    15    21    23   ar
    16    23    24   ar
    17    24    25   ar
    18    25    26   ar
    19    26    27    1
    20    27    28    1
    21    27    29    1
    22    27    30    1
    23     4     5   ar
    24     5     6    2
    25     5     7   ar
    26     7    31    1
    27    32    31    1
    28    32    39    1
    29    39    41    1
    30    41    42    1
    31    42    43    1
    32    43    44    1
    33    44    45   ar
    34    44    46   ar
    35    32    33    1
    36    33    34   ar
    37    34    35   ar
    38    35    36   ar
    39    36    37   ar
    40    37    38   ar
    41     7     8   ar
    42     8     9    2
    43    14    15   ar
    44    15    16    1
    45    15    10   ar
    46     8     1   ar
    47    26    20   ar
    48    38    33   ar
    49    39    40    1
@<TRIPOS>MOLECULE
*****
 46 49 0 0 0
SMALL
GASTEIGER

@<TRIPOS>ATOM
      1 C          62.3250   87.6191   11.2376 C.ar    1  UNL1        0.0703
      2 C          62.9291   86.5828   12.1381 C.ar    1  UNL1        0.0465
      3 C          62.7039   85.1258   11.8618 C.3     1  UNL1        0.0503
      4 N          63.7584   87.0035   13.3152 N.ar    1  UNL1       -0.2806
      5 C          63.9837   88.4605   13.5915 C.ar    1  UNL1        0.3338
      6 O          64.5062   88.8496   14.3291 O.2     1  UNL1       -0.2462
      7 N          63.3795   89.4969   12.6909 N.ar    1  UNL1       -0.2470
      8 C          62.5502   89.0762   11.5139 C.ar    1  UNL1        0.2654
      9 O          61.9461   90.1125   10.6133 O.2     1  UNL1       -0.2668
     10 C          61.2860   85.9755    7.7779 C.ar    1  UNL1        0.1660
     11 C          59.8371   86.3571    7.7066 C.ar    1  UNL1        0.0392
     12 C          59.2176   87.1594    8.8122 C.ar    1  UNL1        0.0033
     13 C          60.0468   87.5801    9.9892 C.ar    1  UNL1        0.0026
     14 C          61.4957   87.1985   10.0605 C.ar    1  UNL1        0.0362
     15 C          62.1153   86.3962    8.9549 C.ar    1  UNL1        0.1739
     16 F          63.5642   86.0145    9.0263 F       1  UNL1       -0.2010
     17 C          61.1127   84.0975    5.9910 C.3     1  UNL1        0.2526
     18 O          61.9056   85.1732    6.6723 O.3     1  UNL1       -0.4692
     19 C          64.3625   85.9672   14.2157 C.3     1  UNL1        0.1391
     20 C          63.8480   84.5585   14.1890 C.ar    1  UNL1        0.0319
     21 C          64.4023   83.5762   13.2001 C.ar    1  UNL1        0.1379
     22 F          65.1001   83.7434   12.5267 F       1  UNL1       -0.2044
     23 C          63.8876   82.1674   13.1734 C.ar    1  UNL1        0.0294
     24 C          62.8188   81.7410   14.1355 C.ar    1  UNL1        0.0022
     25 C          62.2645   82.7233   15.1243 C.ar    1  UNL1        0.0037
     26 C          62.7790   84.1320   15.1511 C.ar    1  UNL1        0.0714
     27 C          62.2248   85.1143   16.1400 C.3     1  UNL1        0.4184
     28 F          61.6705   86.0966   17.1288 F       1  UNL1       -0.1659
     29 F          60.8795   85.0158   15.4837 F       1  UNL1       -0.1659
     30 F          63.5700   85.2128   16.7962 F       1  UNL1       -0.1659
     31 C          63.6047   90.9539   12.9673 C.3     1  UNL1        0.1337
     32 C          64.9387   91.5750   12.6764 C.3     1  UNL1        0.1000
     33 C          65.8720   91.9089   13.8022 C.ar    1  UNL1       -0.0061
     34 C          67.3494   91.9850   13.5542 C.ar    1  UNL1       -0.0029
     35 C          68.2827   92.3189   14.6800 C.ar    1  UNL1       -0.0003
     36 C          67.7387   92.5766   16.0539 C.ar    1  UNL1       -0.0000
     37 C          66.2612   92.5005   16.3020 C.ar    1  UNL1       -0.0003
     38 C          65.3279   92.1666   15.1762 C.ar    1  UNL1       -0.0029
     39 N          65.3395   91.8622   11.2597 N.3     1  UNL1       -0.2935
     40 H          64.7679   91.2625   10.6647 H       1  UNL1        0.1236
     41 C          65.2197   93.2543   10.7140 C.3     1  UNL1        0.0692
     42 C          66.4372   94.1234   10.6027 C.3     1  UNL1        0.0230
     43 C          67.3959   93.9293    9.4654 C.3     1  UNL1        0.0431
     44 C          68.2508   92.6982    9.4070 C.2     1  UNL1        0.0504
     45 O          68.7868   92.2190    8.0905 O.co2   1  UNL1       -0.5492
     46 O          68.5698   91.9462   10.6652 O.co2   1  UNL1       -0.5492
@<TRIPOS>UNITY_ATOM_ATTR
46 1
charge -1
@<TRIPOS>BOND
     1    17    18    1
     2    18    10    1
     3    10    11   ar
     4    11    12   ar
     5    12    13   ar
     6    13    14   ar
     7    14     1    1
     8     1     2   ar
     9     2     3    1
    10     2     4   ar
    11     4    19    1
    12    19    20    1
    13    20    21   ar
    14    21    22    1
    15    21    23   ar
    16    23    24   ar
    17    24    25   ar
    18    25    26   ar
    19    26    27    1
    20    27    28    1
    21    27    29    1
    22    27    30    1
    23     4     5   ar
    24     5     6    2
    25     5     7   ar
    26     7    31    1
    27    32    31    1
    28    32    39    1
    29    39    41    1
    30    41    42    1
    31    42    43    1
    32    43    44    1
    33    44    45   ar
    34    44    46   ar
    35    32    33    1
    36    33    34   ar
    37    34    35   ar
    38    35    36   ar
    39    36    37   ar
    40    37    38   ar
    41     7     8   ar
    42     8     9    2
    43    14    15   ar
    44    15    16    1
    45    15    10   ar
    46     8     1   ar
    47    26    20   ar
    48    38    33   ar
    49    39    40    1
@<TRIPOS>MOLECULE
*****
 46 49 0 0 0
SMALL
GASTEIGER

@<TRIPOS>ATOM
      1 C          63.2792   88.3294   13.6114 C.ar    1  UNL1        0.0703
      2 C          63.9287   86.9968   13.8397 C.ar    1  UNL1        0.0465
      3 C          65.0319   86.8629   14.8473 C.3     1  UNL1        0.0503
      4 N          63.4751   85.7980   13.0605 N.ar    1  UNL1       -0.2806
      5 C          62.3720   85.9318   12.0530 C.ar    1  UNL1        0.3338
      6 O          61.9956   85.2190   11.4885 O.2     1  UNL1       -0.2462
      7 N          61.7224   87.2646   11.8247 N.ar    1  UNL1       -0.2470
      8 C          62.1760   88.4633   12.6039 C.ar    1  UNL1        0.2654
      9 O          61.5264   89.7960   12.3756 O.2     1  UNL1       -0.2668
     10 C          64.9615   91.8153   14.4880 C.ar    1  UNL1        0.1660
     11 C          64.6400   91.9258   15.9489 C.ar    1  UNL1        0.0392
     12 C          63.8649   90.8375   16.6307 C.ar    1  UNL1        0.0033
     13 C          63.4113   89.6388   15.8516 C.ar    1  UNL1        0.0026
     14 C          63.7328   89.5283   14.3907 C.ar    1  UNL1        0.0362
     15 C          64.5079   90.6166   13.7089 C.ar    1  UNL1        0.1739
     16 F          64.8294   90.5060   12.2478 F       1  UNL1       -0.2010
     17 C          66.9562   93.4798   14.4624 C.3     1  UNL1        0.2526
     18 O          65.7366   92.9036   13.8062 O.3     1  UNL1       -0.4692
     19 C          64.1247   84.4654   13.2888 C.3     1  UNL1        0.1391
     20 C          63.2888   83.2206   13.3284 C.ar    1  UNL1        0.0319
     21 C          62.4372   82.9267   14.5278 C.ar    1  UNL1        0.1379
     22 F          62.3491   83.4750   15.3403 F       1  UNL1       -0.2044
     23 C          61.6013   81.6818   14.5673 C.ar    1  UNL1        0.0294
     24 C          61.6169   80.7308   13.4074 C.ar    1  UNL1        0.0022
     25 C          62.4684   81.0247   12.2080 C.ar    1  UNL1        0.0037
     26 C          63.3044   82.2695   12.1685 C.ar    1  UNL1        0.0714
     27 C          64.1559   82.5633   10.9691 C.3     1  UNL1        0.4184
     28 F          65.0074   82.8571    9.7697 F       1  UNL1       -0.1659
     29 F          65.3856   82.2289   11.7602 F       1  UNL1       -0.1659
     30 F          62.9262   82.8977   10.1779 F       1  UNL1       -0.1659
     31 C          60.6192   87.3984   10.8172 C.3     1  UNL1        0.1337
     32 C          60.9460   87.6746    9.3795 C.3     1  UNL1        0.1000
     33 C          61.3458   86.5493    8.4717 C.ar    1  UNL1       -0.0061
     34 C          60.3553   85.9832    7.4980 C.ar    1  UNL1       -0.0029
     35 C          60.7551   84.8580    6.5902 C.ar    1  UNL1       -0.0003
     36 C          62.1455   84.2989    6.6562 C.ar    1  UNL1       -0.0000
     37 C          63.1360   84.8651    7.6300 C.ar    1  UNL1       -0.0003
     38 C          62.7362   85.9903    8.5378 C.ar    1  UNL1       -0.0029
     39 N          60.8729   89.0760    8.8495 N.3     1  UNL1       -0.2935
     40 H          61.6161   89.1680    8.1570 H       1  UNL1        0.1236
     41 C          59.6131   89.5677    8.2007 C.3     1  UNL1        0.0692
     42 C          59.3842   89.3368    6.7364 C.3     1  UNL1        0.0230
     43 C          59.6362   90.4424    5.7544 C.3     1  UNL1        0.0431
     44 C          58.4848   91.2184    5.1870 C.2     1  UNL1        0.0504
     45 O          58.7396   92.3550    4.2419 O.co2   1  UNL1       -0.5492
     46 O          57.0786   90.8579    5.5646 O.co2   1  UNL1       -0.5492
@<TRIPOS>UNITY_ATOM_ATTR
46 1
charge -1
@<TRIPOS>BOND
     1    17    18    1
     2    18    10    1
     3    10    11   ar
     4    11    12   ar
     5    12    13   ar
     6    13    14   ar
     7    14     1    1
     8     1     2   ar
     9     2     3    1
    10     2     4   ar
    11     4    19    1
    12    19    20    1
    13    20    21   ar
    14    21    22    1
    15    21    23   ar
    16    23    24   ar
    17    24    25   ar
    18    25    26   ar
    19    26    27    1
    20    27    28    1
    21    27    29    1
    22    27    30    1
    23     4     5   ar
    24     5     6    2
    25     5     7   ar
    26     7    31    1
    27    32    31    1
    28    32    39    1
    29    39    41    1
    30    41    42    1
    31    42    43    1
    32    43    44    1
    33    44    45   ar
    34    44    46   ar
    35    32    33    1
    36    33    34   ar
    37    34    35   ar
    38    35    36   ar
    39    36    37   ar
    40    37    38   ar
    41     7     8   ar
    42     8     9    2
    43    14    15   ar
    44    15    16    1
    45    15    10   ar
    46     8     1   ar
    47    26    20   ar
    48    38    33   ar
    49    39    40    1
@<TRIPOS>MOLECULE
*****
 46 49 0 0 0
SMALL
GASTEIGER

@<TRIPOS>ATOM
      1 C          61.8537   87.6613   11.1715 C.ar    1  UNL1        0.0703
      2 C          62.5714   86.3788   11.4716 C.ar    1  UNL1        0.0465
      3 C          62.3657   85.1809   10.5926 C.3     1  UNL1        0.0503
      4 N          63.4948   86.2942   12.6507 N.ar    1  UNL1       -0.2806
      5 C          63.7004   87.4922   13.5297 C.ar    1  UNL1        0.3338
      6 O          64.2781   87.5517   14.3242 O.2     1  UNL1       -0.2462
      7 N          62.9827   88.7747   13.2296 N.ar    1  UNL1       -0.2470
      8 C          62.0594   88.8593   12.0505 C.ar    1  UNL1        0.2654
      9 O          61.3417   90.1418   11.7504 O.2     1  UNL1       -0.2668
     10 C          60.0328   89.0395    7.9258 C.ar    1  UNL1        0.1660
     11 C          59.0836   87.9152    7.6343 C.ar    1  UNL1        0.0392
     12 C          59.0578   86.7063    8.5218 C.ar    1  UNL1        0.0033
     13 C          59.9812   86.6216    9.7009 C.ar    1  UNL1        0.0026
     14 C          60.9303   87.7459    9.9924 C.ar    1  UNL1        0.0362
     15 C          60.9561   88.9549    9.1048 C.ar    1  UNL1        0.1739
     16 F          61.9053   90.0792    9.3964 F       1  UNL1       -0.2010
     17 C          59.2791   90.2548    5.7567 C.3     1  UNL1        0.2526
     18 O          60.0586   90.2485    7.0382 O.3     1  UNL1       -0.4692
     19 C          64.2124   85.0117   12.9508 C.3     1  UNL1        0.1391
     20 C          63.4336   83.7452   13.1492 C.ar    1  UNL1        0.0319
     21 C          63.4021   82.7069   12.0672 C.ar    1  UNL1        0.1379
     22 F          63.8513   82.7490   11.1926 F       1  UNL1       -0.2044
     23 C          62.6232   81.4403   12.2656 C.ar    1  UNL1        0.0294
     24 C          61.8759   81.2122   13.5460 C.ar    1  UNL1        0.0022
     25 C          61.9075   82.2505   14.6280 C.ar    1  UNL1        0.0037
     26 C          62.6863   83.5170   14.4297 C.ar    1  UNL1        0.0714
     27 C          62.7178   84.5554   15.5117 C.3     1  UNL1        0.4184
     28 F          62.7493   85.5938   16.5937 F       1  UNL1       -0.1659
     29 F          61.2627   84.8384   15.2825 F       1  UNL1       -0.1659
     30 F          64.1729   84.2724   15.7409 F       1  UNL1       -0.1659
     31 C          63.1884   89.9727   14.1085 C.3     1  UNL1        0.1337
     32 C          64.0100   91.1289   13.6205 C.3     1  UNL1        0.1000
     33 C          65.2304   91.5557   14.3810 C.ar    1  UNL1       -0.0061
     34 C          65.0915   92.1368   15.7569 C.ar    1  UNL1       -0.0029
     35 C          66.3119   92.5636   16.5174 C.ar    1  UNL1       -0.0003
     36 C          67.6712   92.4095   15.9021 C.ar    1  UNL1       -0.0000
     37 C          67.8101   91.8284   14.5261 C.ar    1  UNL1       -0.0003
     38 C          66.5897   91.4015   13.7656 C.ar    1  UNL1       -0.0029
     39 N          63.6112   91.8582   12.3718 N.3     1  UNL1       -0.2935
     40 H          63.6200   92.8531   12.5964 H       1  UNL1        0.1236
     41 C          64.4146   91.6906   11.1163 C.3     1  UNL1        0.0692
     42 C          65.2222   92.8371   10.5841 C.3     1  UNL1        0.0230
     43 C          66.6787   92.6502   10.2777 C.3     1  UNL1        0.0431
     44 C          67.4815   93.7909    9.7262 C.2     1  UNL1        0.0504
     45 O          66.7877   95.0210    9.2207 O.co2   1  UNL1       -0.5492
     46 O          68.9782   93.7015    9.6801 O.co2   1  UNL1       -0.5492
@<TRIPOS>UNITY_ATOM_ATTR
46 1
charge -1
@<TRIPOS>BOND
     1    17    18    1
     2    18    10    1
     3    10    11   ar
     4    11    12   ar
     5    12    13   ar
     6    13    14   ar
     7    14     1    1
     8     1     2   ar
     9     2     3    1
    10     2     4   ar
    11     4    19    1
    12    19    20    1
    13    20    21   ar
    14    21    22    1
    15    21    23   ar
    16    23    24   ar
    17    24    25   ar
    18    25    26   ar
    19    26    27    1
    20    27    28    1
    21    27    29    1
    22    27    30    1
    23     4     5   ar
    24     5     6    2
    25     5     7   ar
    26     7    31    1
    27    32    31    1
    28    32    39    1
    29    39    41    1
    30    41    42    1
    31    42    43    1
    32    43    44    1
    33    44    45   ar
    34    44    46   ar
    35    32    33    1
    36    33    34   ar
    37    34    35   ar
    38    35    36   ar
    39    36    37   ar
    40    37    38   ar
    41     7     8   ar
    42     8     9    2
    43    14    15   ar
    44    15    16    1
    45    15    10   ar
    46     8     1   ar
    47    26    20   ar
    48    38    33   ar
    49    39    40    1
@<TRIPOS>MOLECULE
*****
 46 49 0 0 0
SMALL
GASTEIGER

@<TRIPOS>ATOM
      1 C          62.1651   87.1489   11.1282 C.ar    1  UNL1        0.0703
      2 C          62.8800   86.0393   11.8407 C.ar    1  UNL1        0.0465
      3 C          62.7910   84.6348   11.3217 C.3     1  UNL1        0.0503
      4 N          63.6839   86.3342   13.0723 N.ar    1  UNL1       -0.2806
      5 C          63.7729   87.7388   13.5913 C.ar    1  UNL1        0.3338
      6 O          64.2675   88.0469   14.3843 O.2     1  UNL1       -0.2462
      7 N          63.0580   88.8484   12.8787 N.ar    1  UNL1       -0.2470
      8 C          62.2541   88.5534   11.6472 C.ar    1  UNL1        0.2654
      9 O          61.5392   89.6630   10.9345 O.2     1  UNL1       -0.2668
     10 C          61.2044   85.8879    7.4899 C.ar    1  UNL1        0.1660
     11 C          59.7535   86.2641    7.4334 C.ar    1  UNL1        0.0392
     12 C          59.1064   86.9352    8.6085 C.ar    1  UNL1        0.0033
     13 C          59.9103   87.2302    9.8401 C.ar    1  UNL1        0.0026
     14 C          61.3612   86.8539    9.8965 C.ar    1  UNL1        0.0362
     15 C          62.0083   86.1828    8.7214 C.ar    1  UNL1        0.1739
     16 F          63.4593   85.8066    8.7780 F       1  UNL1       -0.2010
     17 C          61.3207   83.9064    5.8135 C.3     1  UNL1        0.2526
     18 O          61.8515   85.2167    6.3148 O.3     1  UNL1       -0.4692
     19 C          64.3987   85.2246   13.7849 C.3     1  UNL1        0.1391
     20 C          63.7978   83.8510   13.8274 C.ar    1  UNL1        0.0319
     21 C          64.2700   82.7958   12.8716 C.ar    1  UNL1        0.1379
     22 F          64.9629   82.8911   12.1793 F       1  UNL1       -0.2044
     23 C          63.6690   81.4221   12.9142 C.ar    1  UNL1        0.0294
     24 C          62.5958   81.1036   13.9125 C.ar    1  UNL1        0.0022
     25 C          62.1236   82.1588   14.8684 C.ar    1  UNL1        0.0037
     26 C          62.7246   83.5324   14.8258 C.ar    1  UNL1        0.0714
     27 C          62.2524   84.5876   15.7817 C.3     1  UNL1        0.4184
     28 F          61.7801   85.6428   16.7375 F       1  UNL1       -0.1659
     29 F          60.9474   84.6696   15.0465 F       1  UNL1       -0.1659
     30 F          63.5573   84.5056   16.5169 F       1  UNL1       -0.1659
     31 C          63.1470   90.2529   13.3977 C.3     1  UNL1        0.1337
     32 C          64.4875   90.8977   13.5904 C.3     1  UNL1        0.1000
     33 C          65.1217   91.6604   12.4652 C.ar    1  UNL1       -0.0061
     34 C          66.5557   92.0890   12.5641 C.ar    1  UNL1       -0.0029
     35 C          67.1899   92.8516   11.4388 C.ar    1  UNL1       -0.0003
     36 C          66.3900   93.1858   10.2147 C.ar    1  UNL1       -0.0000
     37 C          64.9559   92.7572   10.1158 C.ar    1  UNL1       -0.0003
     38 C          64.3217   91.9945   11.2410 C.ar    1  UNL1       -0.0029
     39 N          65.1940   90.7798   14.9085 N.3     1  UNL1       -0.2935
     40 H          66.1901   90.7034   14.7028 H       1  UNL1        0.1236
     41 C          65.0460   91.8606   15.9380 C.3     1  UNL1        0.0692
     42 C          66.2377   92.6742   16.3478 C.3     1  UNL1        0.0230
     43 C          67.6213   92.1925   16.0258 C.3     1  UNL1        0.0431
     44 C          68.6534   93.1579   15.5232 C.2     1  UNL1        0.0504
     45 O          68.7962   94.5055   16.1663 O.co2   1  UNL1       -0.5492
     46 O          69.5429   92.7757   14.3773 O.co2   1  UNL1       -0.5492
@<TRIPOS>UNITY_ATOM_ATTR
46 1
charge -1
@<TRIPOS>BOND
     1    17    18    1
     2    18    10    1
     3    10    11   ar
     4    11    12   ar
     5    12    13   ar
     6    13    14   ar
     7    14     1    1
     8     1     2   ar
     9     2     3    1
    10     2     4   ar
    11     4    19    1
    12    19    20    1
    13    20    21   ar
    14    21    22    1
    15    21    23   ar
    16    23    24   ar
    17    24    25   ar
    18    25    26   ar
    19    26    27    1
    20    27    28    1
    21    27    29    1
    22    27    30    1
    23     4     5   ar
    24     5     6    2
    25     5     7   ar
    26     7    31    1
    27    32    31    1
    28    32    39    1
    29    39    41    1
    30    41    42    1
    31    42    43    1
    32    43    44    1
    33    44    45   ar
    34    44    46   ar
    35    32    33    1
    36    33    34   ar
    37    34    35   ar
    38    35    36   ar
    39    36    37   ar
    40    37    38   ar
    41     7     8   ar
    42     8     9    2
    43    14    15   ar
    44    15    16    1
    45    15    10   ar
    46     8     1   ar
    47    26    20   ar
    48    38    33   ar
    49    39    40    1
@<TRIPOS>MOLECULE
*****
 46 49 0 0 0
SMALL
GASTEIGER

@<TRIPOS>ATOM
      1 C          63.8070   90.0172   13.5402 C.ar    1  UNL1        0.0703
      2 C          64.8226   91.1210   13.5252 C.ar    1  UNL1        0.0465
      3 C          65.6947   91.3540   14.7232 C.3     1  UNL1        0.0503
      4 N          64.9660   91.9919   12.3123 N.ar    1  UNL1       -0.2806
      5 C          64.0939   91.7589   11.1143 C.ar    1  UNL1        0.3338
      6 O          64.1001   92.2642   10.2699 O.2     1  UNL1       -0.2462
      7 N          63.0783   90.6550   11.1293 N.ar    1  UNL1       -0.2470
      8 C          62.9348   89.7843   12.3422 C.ar    1  UNL1        0.2654
      9 O          61.9192   88.6804   12.3572 O.2     1  UNL1       -0.2668
     10 C          63.8178   86.8082   15.8751 C.ar    1  UNL1        0.1660
     11 C          63.3766   87.4047   17.1788 C.ar    1  UNL1        0.0392
     12 C          63.0789   88.8721   17.2695 C.ar    1  UNL1        0.0033
     13 C          63.2223   89.7429   16.0567 C.ar    1  UNL1        0.0026
     14 C          63.6635   89.1464   14.7531 C.ar    1  UNL1        0.0362
     15 C          63.9613   87.6791   14.6623 C.ar    1  UNL1        0.1739
     16 F          64.4025   87.0826   13.3586 F       1  UNL1       -0.2010
     17 C          63.0039   84.3636   15.5415 C.3     1  UNL1        0.2526
     18 O          64.1156   85.3409   15.7844 O.3     1  UNL1       -0.4692
     19 C          65.9816   93.0956   12.2974 C.3     1  UNL1        0.1391
     20 C          66.7988   93.3462   11.0648 C.ar    1  UNL1        0.0319
     21 C          67.6999   92.2722   10.5311 C.ar    1  UNL1        0.1379
     22 F          67.8338   91.3717   10.9047 F       1  UNL1       -0.2044
     23 C          68.5171   92.5228    9.2985 C.ar    1  UNL1        0.0294
     24 C          68.4333   93.8473    8.5995 C.ar    1  UNL1        0.0022
     25 C          67.5322   94.9213    9.1331 C.ar    1  UNL1        0.0037
     26 C          66.7150   94.6707   10.3657 C.ar    1  UNL1        0.0714
     27 C          65.8139   95.7447   10.8993 C.3     1  UNL1        0.4184
     28 F          64.9129   96.8186   11.4329 F       1  UNL1       -0.1659
     29 F          64.6928   95.2272   10.0476 F       1  UNL1       -0.1659
     30 F          66.9351   96.2621   11.7510 F       1  UNL1       -0.1659
     31 C          62.2061   90.4220    9.9314 C.3     1  UNL1        0.1337
     32 C          60.9189   89.6658   10.0765 C.3     1  UNL1        0.1000
     33 C          60.7003   88.4012    9.3001 C.ar    1  UNL1       -0.0061
     34 C          59.4606   88.2341    8.4723 C.ar    1  UNL1       -0.0029
     35 C          59.2420   86.9694    7.6959 C.ar    1  UNL1       -0.0003
     36 C          60.2631   85.8719    7.7471 C.ar    1  UNL1       -0.0000
     37 C          61.5029   86.0390    8.5749 C.ar    1  UNL1       -0.0003
     38 C          61.7215   87.3036    9.3513 C.ar    1  UNL1       -0.0029
     39 N          59.8501   90.1743   10.9981 N.3     1  UNL1       -0.2935
     40 H          59.0611   90.4470   10.4120 H       1  UNL1        0.1236
     41 C          59.3026   89.2848   12.0747 C.3     1  UNL1        0.0692
     42 C          57.8228   89.0668   12.1870 C.3     1  UNL1        0.0230
     43 C          57.2538   88.3945   13.4012 C.3     1  UNL1        0.0431
     44 C          55.8287   87.9266   13.4007 C.2     1  UNL1        0.0504
     45 O          55.5023   86.5158   13.7923 O.co2   1  UNL1       -0.5492
     46 O          54.7298   88.8694   13.0087 O.co2   1  UNL1       -0.5492
@<TRIPOS>UNITY_ATOM_ATTR
46 1
charge -1
@<TRIPOS>BOND
     1    17    18    1
     2    18    10    1
     3    10    11   ar
     4    11    12   ar
     5    12    13   ar
     6    13    14   ar
     7    14     1    1
     8     1     2   ar
     9     2     3    1
    10     2     4   ar
    11     4    19    1
    12    19    20    1
    13    20    21   ar
    14    21    22    1
    15    21    23   ar
    16    23    24   ar
    17    24    25   ar
    18    25    26   ar
    19    26    27    1
    20    27    28    1
    21    27    29    1
    22    27    30    1
    23     4     5   ar
    24     5     6    2
    25     5     7   ar
    26     7    31    1
    27    32    31    1
    28    32    39    1
    29    39    41    1
    30    41    42    1
    31    42    43    1
    32    43    44    1
    33    44    45   ar
    34    44    46   ar
    35    32    33    1
    36    33    34   ar
    37    34    35   ar
    38    35    36   ar
    39    36    37   ar
    40    37    38   ar
    41     7     8   ar
    42     8     9    2
    43    14    15   ar
    44    15    16    1
    45    15    10   ar
    46     8     1   ar
    47    26    20   ar
    48    38    33   ar
    49    39    40    1
@<TRIPOS>MOLECULE
*****
 46 49 0 0 0
SMALL
GASTEIGER

@<TRIPOS>ATOM
      1 C          63.7822   90.0703   13.6616 C.ar    1  UNL1        0.0703
      2 C          64.8325   91.1391   13.5948 C.ar    1  UNL1        0.0465
      3 C          65.7143   91.3991   14.7800 C.3     1  UNL1        0.0503
      4 N          65.0009   91.9479   12.3427 N.ar    1  UNL1       -0.2806
      5 C          64.1190   91.6879   11.1576 C.ar    1  UNL1        0.3338
      6 O          64.1394   92.1532   10.2907 O.2     1  UNL1       -0.2462
      7 N          63.0687   90.6190   11.2244 N.ar    1  UNL1       -0.2470
      8 C          62.9003   89.8102   12.4764 C.ar    1  UNL1        0.2654
      9 O          61.8499   88.7414   12.5432 O.2     1  UNL1       -0.2668
     10 C          63.7115   86.9765   16.1463 C.ar    1  UNL1        0.1660
     11 C          63.2769   87.6438   17.4175 C.ar    1  UNL1        0.0392
     12 C          63.0107   89.1198   17.4367 C.ar    1  UNL1        0.0033
     13 C          63.1791   89.9287   16.1847 C.ar    1  UNL1        0.0026
     14 C          63.6137   89.2614   14.9136 C.ar    1  UNL1        0.0362
     15 C          63.8799   87.7854   14.8944 C.ar    1  UNL1        0.1739
     16 F          64.3146   87.1181   13.6231 F       1  UNL1       -0.2010
     17 C          62.9488   84.5600   15.5733 C.3     1  UNL1        0.2526
     18 O          63.9777   85.5005   16.1271 O.3     1  UNL1       -0.4692
     19 C          66.0512   93.0167   12.2760 C.3     1  UNL1        0.1391
     20 C          66.8292   93.2256   11.0107 C.ar    1  UNL1        0.0319
     21 C          67.7084   92.1315   10.4816 C.ar    1  UNL1        0.1379
     22 F          67.8509   91.2421   10.8781 F       1  UNL1       -0.2044
     23 C          68.4865   92.3404    9.2162 C.ar    1  UNL1        0.0294
     24 C          68.3853   93.6433    8.4800 C.ar    1  UNL1        0.0022
     25 C          67.5061   94.7374    9.0091 C.ar    1  UNL1        0.0037
     26 C          66.7281   94.5286   10.2744 C.ar    1  UNL1        0.0714
     27 C          65.8488   95.6227   10.8035 C.3     1  UNL1        0.4184
     28 F          64.9696   96.7168   11.3325 F       1  UNL1       -0.1659
     29 F          67.0019   96.1674   11.5931 F       1  UNL1       -0.1659
     30 F          64.6957   95.0779   10.0138 F       1  UNL1       -0.1659
     31 C          62.1868   90.3590   10.0392 C.3     1  UNL1        0.1337
     32 C          61.8965   88.9498    9.6152 C.3     1  UNL1        0.1000
     33 C          60.7255   88.6610    8.7233 C.ar    1  UNL1       -0.0061
     34 C          60.1836   89.7340    7.8261 C.ar    1  UNL1       -0.0029
     35 C          59.0127   89.4453    6.9342 C.ar    1  UNL1       -0.0003
     36 C          58.3837   88.0836    6.9394 C.ar    1  UNL1       -0.0000
     37 C          58.9256   87.0105    7.8367 C.ar    1  UNL1       -0.0003
     38 C          60.0965   87.2992    8.7286 C.ar    1  UNL1       -0.0029
     39 N          62.7771   87.8292   10.0831 N.3     1  UNL1       -0.2935
     40 H          63.3713   88.2096   10.8198 H       1  UNL1        0.1236
     41 C          62.1660   86.5715   10.6259 C.3     1  UNL1        0.0692
     42 C          62.7555   85.2382   10.2729 C.3     1  UNL1        0.0230
     43 C          62.7942   84.1410   11.2950 C.3     1  UNL1        0.0431
     44 C          64.0464   83.3374   11.4857 C.2     1  UNL1        0.0504
     45 O          64.6222   83.1606   12.8594 O.co2   1  UNL1       -0.5492
     46 O          64.7227   82.7106   10.3025 O.co2   1  UNL1       -0.5492
@<TRIPOS>UNITY_ATOM_ATTR
46 1
charge -1
@<TRIPOS>BOND
     1    17    18    1
     2    18    10    1
     3    10    11   ar
     4    11    12   ar
     5    12    13   ar
     6    13    14   ar
     7    14     1    1
     8     1     2   ar
     9     2     3    1
    10     2     4   ar
    11     4    19    1
    12    19    20    1
    13    20    21   ar
    14    21    22    1
    15    21    23   ar
    16    23    24   ar
    17    24    25   ar
    18    25    26   ar
    19    26    27    1
    20    27    28    1
    21    27    29    1
    22    27    30    1
    23     4     5   ar
    24     5     6    2
    25     5     7   ar
    26     7    31    1
    27    32    31    1
    28    32    39    1
    29    39    41    1
    30    41    42    1
    31    42    43    1
    32    43    44    1
    33    44    45   ar
    34    44    46   ar
    35    32    33    1
    36    33    34   ar
    37    34    35   ar
    38    35    36   ar
    39    36    37   ar
    40    37    38   ar
    41     7     8   ar
    42     8     9    2
    43    14    15   ar
    44    15    16    1
    45    15    10   ar
    46     8     1   ar
    47    26    20   ar
    48    38    33   ar
    49    39    40    1
