@<TRIPOS>MOLECULE
*****
 43 47 0 0 0
SMALL
GASTEIGER

@<TRIPOS>ATOM
      1 C          61.7878   88.4855   11.2711 C.ar    1  UNL1        0.0040
      2 C          61.4868   87.3358   10.3560 C.ar    1  UNL1        0.0719
      3 C          62.1530   86.1130   10.9134 C.ar    1  UNL1        0.1049
      4 N          62.8658   86.5069   12.1731 N.ar    1  UNL1       -0.2242
      5 N          63.6913   85.7199   13.1473 N.ar    1  UNL1       -0.1422
      6 C          64.2910   86.3992   14.3426 C.ar    1  UNL1        0.2211
      7 N          64.0653   87.8656   14.5637 N.ar    1  UNL1       -0.2060
      8 C          63.2399   88.6526   13.5894 C.ar    1  UNL1        0.1515
      9 C          62.6401   87.9733   12.3941 C.ar    1  UNL1        0.1107
     10 C          60.6639   87.3980    9.1033 C.ar    1  UNL1        0.2525
     11 N          60.2013   86.2235    8.2931 N.ar    1  UNL1       -0.1057
     12 N          59.4107   86.7452    7.1300 N.ar    1  UNL1       -0.0923
     13 C          59.3847   88.2422    7.2214 C.ar    1  UNL1        0.3087
     14 O          60.1593   88.6456    8.4410 O.2     1  UNL1       -0.4048
     15 N          58.7038   89.1724    6.2617 N.pl3   1  UNL1       -0.2858
     16 H          57.9881   88.8368    5.6749 H       1  UNL1        0.1512
     17 C          59.1134   90.6139    6.1961 C.3     1  UNL1        0.1052
     18 C          58.9738   91.3755    4.9114 C.3     1  UNL1        0.0573
     19 C          57.4843   91.3989    5.0871 C.3     1  UNL1        0.0173
     20 C          60.4633   91.3521    4.7357 C.3     1  UNL1        0.0173
     21 N          58.8342   92.1370    3.6267 N.3     1  UNL1       -0.3219
     22 H          57.8476   92.3247    3.4481 H       1  UNL1        0.1188
     23 H          59.2194   91.5848    2.8605 H       1  UNL1        0.1188
     24 C          62.2111   90.9084   10.4339 C.3     1  UNL1        0.0047
     25 C          61.3189   89.8993   11.0943 C.3     1  UNL1        0.0241
     26 C          59.9580   90.3042   11.5777 C.3     1  UNL1        0.0047
     27 N          63.0141   90.1189   13.8105 N.pl3   1  UNL1       -0.2949
     28 H          62.0984   90.4802   13.8191 H       1  UNL1        0.1537
     29 C          64.1837   91.0348   14.0184 C.ar    1  UNL1        0.0775
     30 C          64.8749   91.6487   12.8370 C.ar    1  UNL1        0.0237
     31 C          66.0444   92.5646   13.0449 C.ar    1  UNL1        0.0821
     32 C          66.5228   92.8667   14.4340 C.ar    1  UNL1        0.1468
     33 F          67.6925   93.7826   14.6419 F       1  UNL1       -0.2039
     34 C          65.8317   92.2529   15.6154 C.ar    1  UNL1        0.0607
     35 C          64.6621   91.3370   15.4075 C.ar    1  UNL1        0.1557
     36 F          63.9710   90.7232   16.5889 F       1  UNL1       -0.2028
     37 C          66.7356   93.1784   11.8635 C.2     1  UNL1        0.2480
     38 O          67.9187   92.4927   11.2471 O.2     1  UNL1       -0.2701
     39 N          66.2436   94.4780   11.2986 N.am    1  UNL1       -0.3024
     40 H          65.4671   94.9280   11.7032 H       1  UNL1        0.1497
     41 C          66.9348   95.0918   10.1173 C.3     1  UNL1        0.0720
     42 C          67.3633   96.3076    9.3503 C.3     1  UNL1        0.0213
     43 C          67.7033   94.9393    8.8383 C.3     1  UNL1        0.0213
@<TRIPOS>BOND
     1    24    25    1
     2    25    26    1
     3    25     1    1
     4     1     2   ar
     5     2    10    1
     6    10    11   ar
     7    11    12   ar
     8    12    13   ar
     9    13    15    1
    10    15    17    1
    11    17    18    1
    12    18    19    1
    13    18    20    1
    14    18    21    1
    15    13    14   ar
    16     2     3   ar
    17     3     4   ar
    18     4     5   ar
    19     5     6   ar
    20     6     7   ar
    21     7     8   ar
    22     8    27    1
    23    27    29    1
    24    29    30   ar
    25    30    31   ar
    26    31    37    1
    27    37    38    2
    28    37    39   am
    29    39    41    1
    30    41    42    1
    31    42    43    1
    32    31    32   ar
    33    32    33    1
    34    32    34   ar
    35    34    35   ar
    36    35    36    1
    37     8     9   ar
    38     9     1   ar
    39    14    10   ar
    40     9     4   ar
    41    35    29   ar
    42    43    41    1
    43    15    16    1
    44    21    22    1
    45    21    23    1
    46    27    28    1
    47    39    40    1
@<TRIPOS>MOLECULE
*****
 43 47 0 0 0
SMALL
GASTEIGER

@<TRIPOS>ATOM
      1 C          62.9647   86.6052   12.1369 C.ar    1  UNL1        0.0040
      2 C          62.8151   85.6446   10.9947 C.ar    1  UNL1        0.0719
      3 C          62.1786   86.3788    9.8520 C.ar    1  UNL1        0.1049
      4 N          61.9347   87.7932   10.2880 N.ar    1  UNL1       -0.2242
      5 N          61.3331   88.9717    9.5816 N.ar    1  UNL1       -0.1422
      6 C          61.2173   90.2901   10.2874 C.ar    1  UNL1        0.2211
      7 N          61.7031   90.4301   11.6996 N.ar    1  UNL1       -0.2060
      8 C          62.3048   89.2516   12.4060 C.ar    1  UNL1        0.1515
      9 C          62.4206   87.9331   11.7002 C.ar    1  UNL1        0.1107
     10 C          63.2293   84.2029   10.9950 C.ar    1  UNL1        0.2525
     11 N          64.5644   83.6691   10.5677 N.ar    1  UNL1       -0.1057
     12 N          64.5414   82.1782   10.7314 N.ar    1  UNL1       -0.0923
     13 C          63.1922   81.7906   11.2598 C.ar    1  UNL1        0.3087
     14 O          62.3813   83.0420   11.4228 O.2     1  UNL1       -0.4048
     15 N          62.7342   80.3965   11.5707 N.pl3   1  UNL1       -0.2858
     16 H          62.6635   79.7294   10.8501 H       1  UNL1        0.1512
     17 C          62.3839   80.0188   12.9795 C.3     1  UNL1        0.1052
     18 C          62.4141   81.0551   14.0634 C.3     1  UNL1        0.0573
     19 C          63.9130   81.0695   14.0080 C.3     1  UNL1        0.0173
     20 C          60.9151   81.0408   14.1188 C.3     1  UNL1        0.0173
     21 N          62.4442   82.0916   15.1473 N.3     1  UNL1       -0.3219
     22 H          63.4120   82.3357   15.3575 H       1  UNL1        0.1188
     23 H          61.9976   81.7199   15.9856 H       1  UNL1        0.1188
     24 C          64.5676   87.2176   14.0879 C.3     1  UNL1        0.0047
     25 C          63.5548   86.2929   13.4802 C.3     1  UNL1        0.0241
     26 C          63.1321   85.0559   14.2158 C.3     1  UNL1        0.0047
     27 N          62.7906   89.3915   13.8183 N.pl3   1  UNL1       -0.2949
     28 H          62.4162   88.8195   14.5266 H       1  UNL1        0.1537
     29 C          63.8470   90.4031   14.1512 C.ar    1  UNL1        0.0775
     30 C          64.7332   90.9459   13.0695 C.ar    1  UNL1        0.0237
     31 C          65.7895   91.9574   13.4024 C.ar    1  UNL1        0.0821
     32 C          65.9597   92.4262   14.8171 C.ar    1  UNL1        0.1468
     33 F          67.0161   93.4378   15.1501 F       1  UNL1       -0.2039
     34 C          65.0736   91.8834   15.8988 C.ar    1  UNL1        0.0607
     35 C          64.0172   90.8718   15.5659 C.ar    1  UNL1        0.1557
     36 F          63.1310   90.3291   16.6476 F       1  UNL1       -0.2028
     37 C          66.6757   92.5003   12.3207 C.2     1  UNL1        0.2480
     38 O          68.1471   92.2097   12.3403 O.2     1  UNL1       -0.2701
     39 N          66.0904   93.3337   11.2194 N.am    1  UNL1       -0.3024
     40 H          65.1246   93.5244   11.2066 H       1  UNL1        0.1497
     41 C          66.9765   93.8765   10.1377 C.3     1  UNL1        0.0720
     42 C          67.4682   95.0339    9.3200 C.3     1  UNL1        0.0213
     43 C          68.0195   93.6594    9.0819 C.3     1  UNL1        0.0213
@<TRIPOS>BOND
     1    24    25    1
     2    25    26    1
     3    25     1    1
     4     1     2   ar
     5     2    10    1
     6    10    11   ar
     7    11    12   ar
     8    12    13   ar
     9    13    15    1
    10    15    17    1
    11    17    18    1
    12    18    19    1
    13    18    20    1
    14    18    21    1
    15    13    14   ar
    16     2     3   ar
    17     3     4   ar
    18     4     5   ar
    19     5     6   ar
    20     6     7   ar
    21     7     8   ar
    22     8    27    1
    23    27    29    1
    24    29    30   ar
    25    30    31   ar
    26    31    37    1
    27    37    38    2
    28    37    39   am
    29    39    41    1
    30    41    42    1
    31    42    43    1
    32    31    32   ar
    33    32    33    1
    34    32    34   ar
    35    34    35   ar
    36    35    36    1
    37     8     9   ar
    38     9     1   ar
    39    14    10   ar
    40     9     4   ar
    41    35    29   ar
    42    43    41    1
    43    15    16    1
    44    21    22    1
    45    21    23    1
    46    27    28    1
    47    39    40    1
