@<TRIPOS>MOLECULE
*****
 33 36 0 0 0
SMALL
GASTEIGER

@<TRIPOS>ATOM
      1 C          64.1662   89.1706   13.9026 C.ar    1  UNL1       -0.0025
      2 C          63.4354   88.6768   12.6895 C.ar    1  UNL1       -0.0013
      3 C          63.1124   87.2186   12.5502 C.ar    1  UNL1        0.0185
      4 C          63.5203   86.2542   13.6242 C.ar    1  UNL1        0.1103
      5 C          64.2512   86.7480   14.8375 C.ar    1  UNL1        0.0185
      6 C          64.5742   88.2063   14.9768 C.ar    1  UNL1       -0.0013
      7 S          63.1973   84.7961   13.4850 S.O2    1  UNL1        0.0274
      8 O          62.4124   85.0887   12.2408 O.2     1  UNL1       -0.1642
      9 O          63.9824   84.5034   14.7293 O.2     1  UNL1       -0.1642
     10 C          62.8744   83.3379   13.3458 C.ar    1  UNL1        0.1102
     11 C          62.2948   82.5840   14.5059 C.ar    1  UNL1        0.0187
     12 C          61.9719   81.1258   14.3669 C.ar    1  UNL1        0.0013
     13 C          62.2285   80.4214   13.0676 C.ar    1  UNL1        0.0039
     14 C          62.8080   81.1752   11.9075 C.ar    1  UNL1        0.0727
     15 C          63.1310   82.6335   12.0466 C.ar    1  UNL1        0.0226
     16 C          63.0646   80.4708   10.6083 C.3     1  UNL1        0.4186
     17 F          63.3212   79.7664    9.3092 F       1  UNL1       -0.1659
     18 F          63.4580   81.7745    9.9792 F       1  UNL1       -0.1659
     19 F          62.6712   79.1671   11.2375 F       1  UNL1       -0.1659
     20 C          64.4892   90.6288   14.0419 C.3     1  UNL1        0.1166
     21 O          67.0890   92.1256   14.0240 O.2     1  UNL1       -0.2703
     22 C          66.1865   92.1758   12.8271 C.2     1  UNL1        0.2461
     23 N          64.8866   91.4274   12.8360 N.am    1  UNL1       -0.2970
     24 H          64.2942   91.4604   12.0503 H       1  UNL1        0.1500
     25 C          66.5839   92.9745   11.6211 C.2     1  UNL1        0.0824
     26 C          67.4378   92.3514   10.5570 C.2     1  UNL1        0.2365
     27 N          67.8352   93.1501    9.3510 N.2     1  UNL1       -0.0290
     28 C          67.3785   94.5718    9.2092 C.2     1  UNL1        0.3995
     29 N          67.6098   95.5984    8.1403 N.2     1  UNL1        0.0864
     30 N          66.8987   96.8560    8.5439 N.2     1  UNL1       -0.0324
     31 C          66.2279   96.6066    9.8622 C.2     1  UNL1        0.1528
     32 C          66.5244   95.1948   10.2734 C.2     1  UNL1        0.0960
     33 C          66.1271   94.3962   11.4793 C.3     1  UNL1        0.0708
@<TRIPOS>BOND
     1    21    22    2
     2    22    23   am
     3    23    20    1
     4    20     1    1
     5     1     2   ar
     6     2     3   ar
     7     3     4   ar
     8     4     7    1
     9     7     8    2
    10     7     9    2
    11     7    10    1
    12    10    11   ar
    13    11    12   ar
    14    12    13   ar
    15    13    14   ar
    16    14    16    1
    17    16    17    1
    18    16    18    1
    19    16    19    1
    20    14    15   ar
    21     4     5   ar
    22     5     6   ar
    23    22    25    1
    24    25    26    2
    25    26    27    1
    26    27    28    2
    27    28    29    1
    28    29    30    2
    29    30    31    1
    30    31    32    2
    31    32    33    1
    32     6     1   ar
    33    33    25    1
    34    15    10   ar
    35    32    28    1
    36    23    24    1
@<TRIPOS>MOLECULE
*****
 33 36 0 0 0
SMALL
GASTEIGER

@<TRIPOS>ATOM
      1 C          59.8356   88.5527    7.9097 C.ar    1  UNL1       -0.0025
      2 C          60.6038   89.1019    9.0750 C.ar    1  UNL1       -0.0013
      3 C          61.2916   88.1686   10.0268 C.ar    1  UNL1        0.0185
      4 C          61.2111   86.6861    9.8133 C.ar    1  UNL1        0.1103
      5 C          60.4428   86.1368    8.6479 C.ar    1  UNL1        0.0185
      6 C          59.7550   87.0702    7.6961 C.ar    1  UNL1       -0.0013
      7 S          61.8989   85.7528   10.7651 S.O2    1  UNL1        0.0274
      8 O          61.1839   86.3985   11.9148 O.2     1  UNL1       -0.1642
      9 O          62.6139   85.1071    9.6153 O.2     1  UNL1       -0.1642
     10 C          62.5867   84.8195   11.7168 C.ar    1  UNL1        0.1102
     11 C          63.4539   85.3687   12.8107 C.ar    1  UNL1        0.0187
     12 C          64.1418   84.4355   13.7624 C.ar    1  UNL1        0.0013
     13 C          63.9624   82.9530   13.6205 C.ar    1  UNL1        0.0039
     14 C          63.0952   82.4038   12.5267 C.ar    1  UNL1        0.0727
     15 C          62.4073   83.3371   11.5749 C.ar    1  UNL1        0.0226
     16 C          62.9158   80.9214   12.3847 C.3     1  UNL1        0.4186
     17 F          62.7365   79.4390   12.2427 F       1  UNL1       -0.1659
     18 F          62.9752   80.7714   13.8760 F       1  UNL1       -0.1659
     19 F          62.8565   81.0714   10.8934 F       1  UNL1       -0.1659
     20 C          59.1478   89.4860    6.9579 C.3     1  UNL1        0.1166
     21 O          57.8147   91.5290    5.2118 O.2     1  UNL1       -0.2703
     22 C          59.2778   91.2424    5.0479 C.2     1  UNL1        0.2461
     23 N          59.9444   90.2210    5.9209 N.am    1  UNL1       -0.2970
     24 H          60.9048   90.0329    5.8133 H       1  UNL1        0.1500
     25 C          60.0745   91.9774    4.0109 C.2     1  UNL1        0.0824
     26 C          59.4378   93.0803    3.2186 C.2     1  UNL1        0.2365
     27 N          60.2345   93.8153    2.1816 N.2     1  UNL1       -0.0290
     28 C          61.6680   93.4471    1.9371 C.2     1  UNL1        0.3995
     29 N          62.6957   93.9894    0.9887 N.2     1  UNL1        0.0864
     30 N          63.9676   93.2214    1.1949 N.2     1  UNL1       -0.0324
     31 C          63.7259   92.2046    2.2709 C.2     1  UNL1        0.1528
     32 C          62.3046   92.3441    2.7296 C.2     1  UNL1        0.0960
     33 C          61.5079   91.6092    3.7665 C.3     1  UNL1        0.0708
@<TRIPOS>BOND
     1    21    22    2
     2    22    23   am
     3    23    20    1
     4    20     1    1
     5     1     2   ar
     6     2     3   ar
     7     3     4   ar
     8     4     7    1
     9     7     8    2
    10     7     9    2
    11     7    10    1
    12    10    11   ar
    13    11    12   ar
    14    12    13   ar
    15    13    14   ar
    16    14    16    1
    17    16    17    1
    18    16    18    1
    19    16    19    1
    20    14    15   ar
    21     4     5   ar
    22     5     6   ar
    23    22    25    1
    24    25    26    2
    25    26    27    1
    26    27    28    2
    27    28    29    1
    28    29    30    2
    29    30    31    1
    30    31    32    2
    31    32    33    1
    32     6     1   ar
    33    33    25    1
    34    15    10   ar
    35    32    28    1
    36    23    24    1
@<TRIPOS>MOLECULE
*****
 33 36 0 0 0
SMALL
GASTEIGER

@<TRIPOS>ATOM
      1 C          59.8389   88.5253    7.8086 C.ar    1  UNL1       -0.0025
      2 C          60.5987   89.1133    8.9603 C.ar    1  UNL1       -0.0013
      3 C          61.3144   88.2139    9.9241 C.ar    1  UNL1        0.0185
      4 C          61.2702   86.7264    9.7360 C.ar    1  UNL1        0.1103
      5 C          60.5103   86.1383    8.5842 C.ar    1  UNL1        0.0185
      6 C          59.7946   87.0378    7.6203 C.ar    1  UNL1       -0.0013
      7 S          61.9859   85.8270   10.6998 S.O2    1  UNL1        0.0274
      8 O          62.7578   85.2239    9.5638 O.2     1  UNL1       -0.1642
      9 O          61.2139   86.4301   11.8358 O.2     1  UNL1       -0.1642
     10 C          62.7015   84.9276   11.6636 C.ar    1  UNL1        0.1102
     11 C          63.1548   83.5668   11.2245 C.ar    1  UNL1        0.0187
     12 C          63.8705   82.6674   12.1882 C.ar    1  UNL1        0.0013
     13 C          64.1328   83.1287   13.5912 C.ar    1  UNL1        0.0039
     14 C          63.6796   84.4895   14.0304 C.ar    1  UNL1        0.0727
     15 C          62.9639   85.3890   13.0665 C.ar    1  UNL1        0.0226
     16 C          63.9419   84.9508   15.4333 C.3     1  UNL1        0.4186
     17 F          64.2044   85.4122   16.8362 F       1  UNL1       -0.1659
     18 F          62.6693   84.2984   15.8859 F       1  UNL1       -0.1659
     19 F          65.2146   85.6032   14.9807 F       1  UNL1       -0.1659
     20 C          59.1232   89.4247    6.8447 C.3     1  UNL1        0.1166
     21 O          57.7942   91.5965    5.2582 O.2     1  UNL1       -0.2703
     22 C          59.2326   91.2554    5.0045 C.2     1  UNL1        0.2461
     23 N          59.8972   90.1695    5.7978 N.am    1  UNL1       -0.2970
     24 H          60.8413   89.9457    5.6312 H       1  UNL1        0.1500
     25 C          60.0067   92.0002    3.9575 C.2     1  UNL1        0.0824
     26 C          59.3352   93.0682    3.1462 C.2     1  UNL1        0.2365
     27 N          60.1093   93.8130    2.0992 N.2     1  UNL1       -0.0290
     28 C          61.5549   93.4896    1.8636 C.2     1  UNL1        0.3995
     29 N          62.5662   94.0511    0.9086 N.2     1  UNL1        0.0864
     30 N          63.8628   93.3299    1.1296 N.2     1  UNL1       -0.0324
     31 C          63.6528   92.3228    2.2213 C.2     1  UNL1        0.1528
     32 C          62.2265   92.4215    2.6749 C.2     1  UNL1        0.0960
     33 C          61.4524   91.6768    3.7218 C.3     1  UNL1        0.0708
@<TRIPOS>BOND
     1    21    22    2
     2    22    23   am
     3    23    20    1
     4    20     1    1
     5     1     2   ar
     6     2     3   ar
     7     3     4   ar
     8     4     7    1
     9     7     8    2
    10     7     9    2
    11     7    10    1
    12    10    11   ar
    13    11    12   ar
    14    12    13   ar
    15    13    14   ar
    16    14    16    1
    17    16    17    1
    18    16    18    1
    19    16    19    1
    20    14    15   ar
    21     4     5   ar
    22     5     6   ar
    23    22    25    1
    24    25    26    2
    25    26    27    1
    26    27    28    2
    27    28    29    1
    28    29    30    2
    29    30    31    1
    30    31    32    2
    31    32    33    1
    32     6     1   ar
    33    33    25    1
    34    15    10   ar
    35    32    28    1
    36    23    24    1
@<TRIPOS>MOLECULE
*****
 33 36 0 0 0
SMALL
GASTEIGER

@<TRIPOS>ATOM
      1 C          62.1274   89.1077   11.4588 C.ar    1  UNL1       -0.0025
      2 C          63.2008   88.6064   12.3787 C.ar    1  UNL1       -0.0013
      3 C          63.3332   87.1363   12.6459 C.ar    1  UNL1        0.0185
      4 C          62.3922   86.1676   11.9931 C.ar    1  UNL1        0.1103
      5 C          61.3187   86.6690   11.0731 C.ar    1  UNL1        0.0185
      6 C          61.1863   88.1392   10.8059 C.ar    1  UNL1       -0.0013
      7 S          62.5246   84.6976   12.2602 S.O2    1  UNL1        0.0274
      8 O          62.6528   84.4416   10.7878 O.2     1  UNL1       -0.1642
      9 O          62.3964   84.9537   13.7327 O.2     1  UNL1       -0.1642
     10 C          62.6570   83.2276   12.5275 C.ar    1  UNL1        0.1102
     11 C          62.6862   82.7216   13.9393 C.ar    1  UNL1        0.0187
     12 C          62.8186   81.2516   14.2067 C.ar    1  UNL1        0.0013
     13 C          62.9218   80.2875   13.0622 C.ar    1  UNL1        0.0039
     14 C          62.8927   80.7934   11.6504 C.ar    1  UNL1        0.0727
     15 C          62.7602   82.2635   11.3830 C.ar    1  UNL1        0.0226
     16 C          62.9959   79.8292   10.5059 C.3     1  UNL1        0.4186
     17 F          63.0991   78.8651    9.3616 F       1  UNL1       -0.1659
     18 F          63.3613   80.9579    9.5881 F       1  UNL1       -0.1659
     19 F          62.6304   78.7005   11.4239 F       1  UNL1       -0.1659
     20 C          61.9950   90.5779   11.1916 C.3     1  UNL1        0.1166
     21 O          64.0233   91.8416   13.0051 O.2     1  UNL1       -0.2703
     22 C          64.1622   91.9733   11.5175 C.2     1  UNL1        0.2461
     23 N          63.1480   91.3414   10.6107 N.am    1  UNL1       -0.2970
     24 H          63.2392   91.4279    9.6342 H       1  UNL1        0.1500
     25 C          65.3152   92.7368   10.9364 C.2     1  UNL1        0.0824
     26 C          66.6995   92.1619   10.9916 C.2     1  UNL1        0.2365
     27 N          67.8525   92.9254   10.4105 N.2     1  UNL1       -0.0290
     28 C          67.6211   94.2640    9.7743 C.2     1  UNL1        0.3995
     29 N          68.5550   95.2405    9.1230 N.2     1  UNL1        0.0864
     30 N          67.7478   96.4191    8.6653 N.2     1  UNL1       -0.0324
     31 C          66.3151   96.1709    9.0337 C.2     1  UNL1        0.1528
     32 C          66.2368   94.8389    9.7192 C.2     1  UNL1        0.0960
     33 C          65.0838   94.0754   10.3002 C.3     1  UNL1        0.0708
@<TRIPOS>BOND
     1    21    22    2
     2    22    23   am
     3    23    20    1
     4    20     1    1
     5     1     2   ar
     6     2     3   ar
     7     3     4   ar
     8     4     7    1
     9     7     8    2
    10     7     9    2
    11     7    10    1
    12    10    11   ar
    13    11    12   ar
    14    12    13   ar
    15    13    14   ar
    16    14    16    1
    17    16    17    1
    18    16    18    1
    19    16    19    1
    20    14    15   ar
    21     4     5   ar
    22     5     6   ar
    23    22    25    1
    24    25    26    2
    25    26    27    1
    26    27    28    2
    27    28    29    1
    28    29    30    2
    29    30    31    1
    30    31    32    2
    31    32    33    1
    32     6     1   ar
    33    33    25    1
    34    15    10   ar
    35    32    28    1
    36    23    24    1
@<TRIPOS>MOLECULE
*****
 33 36 0 0 0
SMALL
GASTEIGER

@<TRIPOS>ATOM
      1 C          62.7520   88.6810   11.6903 C.ar    1  UNL1       -0.0025
      2 C          63.4969   88.0660   12.8377 C.ar    1  UNL1       -0.0013
      3 C          63.4467   86.5828   13.0558 C.ar    1  UNL1        0.0185
      4 C          62.6515   85.7146   12.1264 C.ar    1  UNL1        0.1103
      5 C          61.9065   86.3296   10.9789 C.ar    1  UNL1        0.0185
      6 C          61.9567   87.8129   10.7608 C.ar    1  UNL1       -0.0013
      7 S          62.6013   84.2314   12.3444 S.O2    1  UNL1        0.0274
      8 O          62.9539   84.0076   10.9038 O.2     1  UNL1       -0.1642
      9 O          62.2486   84.4552   13.7852 O.2     1  UNL1       -0.1642
     10 C          62.5510   82.7482   12.5626 C.ar    1  UNL1        0.1102
     11 C          62.2687   82.2005   13.9302 C.ar    1  UNL1        0.0187
     12 C          62.2184   80.7173   14.1485 C.ar    1  UNL1        0.0013
     13 C          62.4505   79.7818   12.9991 C.ar    1  UNL1        0.0039
     14 C          62.7329   80.3295   11.6315 C.ar    1  UNL1        0.0727
     15 C          62.7831   81.8128   11.4133 C.ar    1  UNL1        0.0226
     16 C          62.9649   79.3940   10.4822 C.3     1  UNL1        0.4186
     17 F          63.1970   78.4586    9.3329 F       1  UNL1       -0.1659
     18 F          62.7331   78.2221   11.3893 F       1  UNL1       -0.1659
     19 F          63.1967   80.5660    9.5751 F       1  UNL1       -0.1659
     20 C          62.8022   90.1643   11.4722 C.3     1  UNL1        0.1166
     21 O          63.2416   90.7066   14.3898 O.2     1  UNL1       -0.2703
     22 C          64.2213   91.2187   13.3760 C.2     1  UNL1        0.2461
     23 N          64.0016   90.9476   11.9172 N.am    1  UNL1       -0.2970
     24 H          64.6446   91.2837   11.2517 H       1  UNL1        0.1500
     25 C          65.4207   92.0020   13.8209 C.2     1  UNL1        0.0824
     26 C          65.7820   93.2805   13.1247 C.2     1  UNL1        0.2365
     27 N          66.9814   94.0639   13.5696 N.2     1  UNL1       -0.0290
     28 C          67.8195   93.5685   14.7108 C.2     1  UNL1        0.3995
     29 N          69.0499   94.1217   15.3665 N.2     1  UNL1        0.0864
     30 N          69.4490   93.1851   16.4680 N.2     1  UNL1       -0.0324
     31 C          68.4653   92.0529   16.4930 C.2     1  UNL1        0.1528
     32 C          67.4582   92.2899   15.4070 C.2     1  UNL1        0.0960
     33 C          66.2588   91.5067   14.9620 C.3     1  UNL1        0.0708
@<TRIPOS>BOND
     1    21    22    2
     2    22    23   am
     3    23    20    1
     4    20     1    1
     5     1     2   ar
     6     2     3   ar
     7     3     4   ar
     8     4     7    1
     9     7     8    2
    10     7     9    2
    11     7    10    1
    12    10    11   ar
    13    11    12   ar
    14    12    13   ar
    15    13    14   ar
    16    14    16    1
    17    16    17    1
    18    16    18    1
    19    16    19    1
    20    14    15   ar
    21     4     5   ar
    22     5     6   ar
    23    22    25    1
    24    25    26    2
    25    26    27    1
    26    27    28    2
    27    28    29    1
    28    29    30    2
    29    30    31    1
    30    31    32    2
    31    32    33    1
    32     6     1   ar
    33    33    25    1
    34    15    10   ar
    35    32    28    1
    36    23    24    1
