@<TRIPOS>MOLECULE
*****
 24 27 0 0 0
SMALL
GASTEIGER

@<TRIPOS>ATOM
      1 C          63.0126   85.5142   12.5621 C.ar    1  UNL1       -0.0002
      2 C          63.7181   86.2561   13.6583 C.ar    1  UNL1       -0.0000
      3 C          63.8428   87.7495   13.5935 C.ar    1  UNL1       -0.0003
      4 C          63.2620   88.5009   12.4325 C.ar    1  UNL1       -0.0043
      5 C          62.5565   87.7590   11.3363 C.ar    1  UNL1       -0.0218
      6 C          62.4318   86.2656   11.4011 C.ar    1  UNL1       -0.0043
      7 C          61.9756   88.5104   10.1752 C.3     1  UNL1        0.0310
      8 C          62.1003   90.0038   10.1104 C.3     1  UNL1        0.0307
      9 C          62.8059   90.7458   11.2067 C.2     1  UNL1       -0.0258
     10 C          63.3867   89.9944   12.3677 C.2     1  UNL1       -0.0045
     11 F          62.5137   79.5405   12.8211 F       1  UNL1       -0.2018
     12 C          62.6384   81.0339   12.7564 C.ar    1  UNL1        0.1674
     13 C          62.4173   81.8591   13.9893 C.ar    1  UNL1        0.0320
     14 C          62.5420   83.3526   13.9245 C.ar    1  UNL1        0.0025
     15 C          62.8878   84.0207   12.6269 C.ar    1  UNL1        0.0024
     16 C          63.1090   83.1955   11.3939 C.ar    1  UNL1        0.0320
     17 C          62.9843   81.7021   11.4587 C.ar    1  UNL1        0.1674
     18 F          63.2054   80.8769   10.2257 F       1  UNL1       -0.2018
     19 C          64.0922   90.7363   13.4639 C.ar    1  UNL1        0.0028
     20 C          63.5701   90.6735   14.8687 C.ar    1  UNL1        0.0207
     21 C          64.2757   91.4154   15.9649 C.ar    1  UNL1        0.0989
     22 N          65.5034   92.2202   15.6564 N.ar    1  UNL1       -0.2423
     23 C          66.0254   92.2830   14.2515 C.ar    1  UNL1        0.0989
     24 C          65.3199   91.5411   13.1553 C.ar    1  UNL1        0.0207
@<TRIPOS>BOND
     1    11    12    1
     2    12    13   ar
     3    13    14   ar
     4    14    15   ar
     5    15     1    1
     6     1     2   ar
     7     2     3   ar
     8     3     4   ar
     9     4     5   ar
    10     5     6   ar
    11     5     7    1
    12     7     8    1
    13     8     9    1
    14     9    10    2
    15    10    19    1
    16    19    20   ar
    17    20    21   ar
    18    21    22   ar
    19    22    23   ar
    20    23    24   ar
    21    15    16   ar
    22    16    17   ar
    23    17    18    1
    24    17    12   ar
    25     6     1   ar
    26    24    19   ar
    27    10     4    1
@<TRIPOS>MOLECULE
*****
 24 27 0 0 0
SMALL
GASTEIGER

@<TRIPOS>ATOM
      1 C          62.9180   90.2367   10.7431 C.ar    1  UNL1       -0.0002
      2 C          63.3977   91.3584    9.8703 C.ar    1  UNL1       -0.0000
      3 C          64.4027   92.3402   10.3956 C.ar    1  UNL1       -0.0003
      4 C          64.9279   92.2004   11.7937 C.ar    1  UNL1       -0.0043
      5 C          64.4482   91.0787   12.6664 C.ar    1  UNL1       -0.0218
      6 C          63.4432   90.0969   12.1411 C.ar    1  UNL1       -0.0043
      7 C          64.9734   90.9389   14.0645 C.3     1  UNL1        0.0310
      8 C          65.9784   91.9207   14.5898 C.3     1  UNL1        0.0307
      9 C          66.4582   93.0425   13.7170 C.2     1  UNL1       -0.0258
     10 C          65.9330   93.1823   12.3190 C.2     1  UNL1       -0.0045
     11 F          58.8980   86.3092    8.6420 F       1  UNL1       -0.2018
     12 C          59.9030   87.2911    9.1672 C.ar    1  UNL1        0.1674
     13 C          59.7994   88.7409    8.7969 C.ar    1  UNL1        0.0320
     14 C          60.8044   89.7228    9.3222 C.ar    1  UNL1        0.0025
     15 C          61.9130   89.2548   10.2177 C.ar    1  UNL1        0.0024
     16 C          62.0165   87.8050   10.5881 C.ar    1  UNL1        0.0320
     17 C          61.0116   86.8231   10.0628 C.ar    1  UNL1        0.1674
     18 F          61.1152   85.3732   10.4331 F       1  UNL1       -0.2018
     19 C          66.4127   94.3039   11.4462 C.ar    1  UNL1        0.0028
     20 C          67.1810   94.0035   10.1935 C.ar    1  UNL1        0.0207
     21 C          67.6607   95.1253    9.3207 C.ar    1  UNL1        0.0989
     22 N          67.3721   96.5473    9.7007 N.ar    1  UNL1       -0.2423
     23 C          66.6038   96.8477   10.9535 C.ar    1  UNL1        0.0989
     24 C          66.1241   95.7261   11.8263 C.ar    1  UNL1        0.0207
@<TRIPOS>BOND
     1    11    12    1
     2    12    13   ar
     3    13    14   ar
     4    14    15   ar
     5    15     1    1
     6     1     2   ar
     7     2     3   ar
     8     3     4   ar
     9     4     5   ar
    10     5     6   ar
    11     5     7    1
    12     7     8    1
    13     8     9    1
    14     9    10    2
    15    10    19    1
    16    19    20   ar
    17    20    21   ar
    18    21    22   ar
    19    22    23   ar
    20    23    24   ar
    21    15    16   ar
    22    16    17   ar
    23    17    18    1
    24    17    12   ar
    25     6     1   ar
    26    24    19   ar
    27    10     4    1
@<TRIPOS>MOLECULE
*****
 24 27 0 0 0
SMALL
GASTEIGER

@<TRIPOS>ATOM
      1 C          63.1829   84.4385   13.9012 C.ar    1  UNL1       -0.0002
      2 C          63.6175   85.5375   12.9775 C.ar    1  UNL1       -0.0000
      3 C          63.7780   86.9351   13.4980 C.ar    1  UNL1       -0.0003
      4 C          63.5039   87.2337   14.9423 C.ar    1  UNL1       -0.0043
      5 C          63.0694   86.1347   15.8660 C.ar    1  UNL1       -0.0218
      6 C          62.9089   84.7371   15.3454 C.ar    1  UNL1       -0.0043
      7 C          62.7953   86.4332   17.3102 C.3     1  UNL1        0.0310
      8 C          62.9558   87.8308   17.8307 C.3     1  UNL1        0.0307
      9 C          63.3904   88.9299   16.9070 C.2     1  UNL1       -0.0258
     10 C          63.6644   88.6313   15.4627 C.2     1  UNL1       -0.0045
     11 F          62.5409   78.8480   11.8192 F       1  UNL1       -0.2018
     12 C          62.7014   80.2456   12.3397 C.ar    1  UNL1        0.1674
     13 C          62.4632   80.5372   13.7917 C.ar    1  UNL1        0.0320
     14 C          62.6237   81.9348   14.3122 C.ar    1  UNL1        0.0025
     15 C          63.0224   83.0408   13.3807 C.ar    1  UNL1        0.0024
     16 C          63.2606   82.7493   11.9288 C.ar    1  UNL1        0.0320
     17 C          63.1001   81.3517   11.4083 C.ar    1  UNL1        0.1674
     18 F          63.3383   81.0602    9.9563 F       1  UNL1       -0.2018
     19 C          64.0990   89.7303   14.5390 C.ar    1  UNL1        0.0028
     20 C          65.3699   90.4795   14.8104 C.ar    1  UNL1        0.0207
     21 C          65.8044   91.5786   13.8866 C.ar    1  UNL1        0.0989
     22 N          64.9681   91.9284   12.6916 N.ar    1  UNL1       -0.2423
     23 C          63.6972   91.1793   12.4202 C.ar    1  UNL1        0.0989
     24 C          63.2627   90.0802   13.3439 C.ar    1  UNL1        0.0207
@<TRIPOS>BOND
     1    11    12    1
     2    12    13   ar
     3    13    14   ar
     4    14    15   ar
     5    15     1    1
     6     1     2   ar
     7     2     3   ar
     8     3     4   ar
     9     4     5   ar
    10     5     6   ar
    11     5     7    1
    12     7     8    1
    13     8     9    1
    14     9    10    2
    15    10    19    1
    16    19    20   ar
    17    20    21   ar
    18    21    22   ar
    19    22    23   ar
    20    23    24   ar
    21    15    16   ar
    22    16    17   ar
    23    17    18    1
    24    17    12   ar
    25     6     1   ar
    26    24    19   ar
    27    10     4    1
@<TRIPOS>MOLECULE
*****
 24 27 0 0 0
SMALL
GASTEIGER

@<TRIPOS>ATOM
      1 C          64.2600   89.7385   13.4499 C.ar    1  UNL1       -0.0002
      2 C          63.4472   90.2164   12.2834 C.ar    1  UNL1       -0.0000
      3 C          62.6510   89.2372   11.4727 C.ar    1  UNL1       -0.0003
      4 C          62.6676   87.7801   11.8286 C.ar    1  UNL1       -0.0043
      5 C          63.4805   87.3022   12.9951 C.ar    1  UNL1       -0.0218
      6 C          64.2767   88.2814   13.8058 C.ar    1  UNL1       -0.0043
      7 C          63.4971   85.8451   13.3509 C.3     1  UNL1        0.0310
      8 C          62.7009   84.8660   12.5402 C.3     1  UNL1        0.0307
      9 C          61.8880   85.3439   11.3736 C.2     1  UNL1       -0.0258
     10 C          61.8714   86.8009   11.0178 C.2     1  UNL1       -0.0045
     11 F          67.4450   93.6551   16.6928 F       1  UNL1       -0.2018
     12 C          66.6488   92.6760   15.8821 C.ar    1  UNL1        0.1674
     13 C          65.2788   92.2660   16.3351 C.ar    1  UNL1        0.0320
     14 C          64.4826   91.2868   15.5243 C.ar    1  UNL1        0.0025
     15 C          65.0563   90.7176   14.2607 C.ar    1  UNL1        0.0024
     16 C          66.4262   91.1276   13.8077 C.ar    1  UNL1        0.0320
     17 C          67.2225   92.1067   14.6184 C.ar    1  UNL1        0.1674
     18 F          68.5924   92.5166   14.1655 F       1  UNL1       -0.2018
     19 C          61.0585   87.2789    9.8513 C.ar    1  UNL1        0.0028
     20 C          60.8064   88.7455    9.6635 C.ar    1  UNL1        0.0207
     21 C          59.9935   89.2235    8.4969 C.ar    1  UNL1        0.0989
     22 N          59.4328   88.2347    7.5181 N.ar    1  UNL1       -0.2423
     23 C          59.6850   86.7680    7.7059 C.ar    1  UNL1        0.0989
     24 C          60.4978   86.2901    8.8725 C.ar    1  UNL1        0.0207
@<TRIPOS>BOND
     1    11    12    1
     2    12    13   ar
     3    13    14   ar
     4    14    15   ar
     5    15     1    1
     6     1     2   ar
     7     2     3   ar
     8     3     4   ar
     9     4     5   ar
    10     5     6   ar
    11     5     7    1
    12     7     8    1
    13     8     9    1
    14     9    10    2
    15    10    19    1
    16    19    20   ar
    17    20    21   ar
    18    21    22   ar
    19    22    23   ar
    20    23    24   ar
    21    15    16   ar
    22    16    17   ar
    23    17    18    1
    24    17    12   ar
    25     6     1   ar
    26    24    19   ar
    27    10     4    1
@<TRIPOS>MOLECULE
*****
 24 27 0 0 0
SMALL
GASTEIGER

@<TRIPOS>ATOM
      1 C          62.5853   86.2909   10.7394 C.ar    1  UNL1       -0.0002
      2 C          62.7089   87.7479   11.0738 C.ar    1  UNL1       -0.0000
      3 C          63.1742   88.1678   12.4365 C.ar    1  UNL1       -0.0003
      4 C          63.5161   87.1307   13.4649 C.ar    1  UNL1       -0.0043
      5 C          63.3925   85.6737   13.1305 C.ar    1  UNL1       -0.0218
      6 C          62.9271   85.2538   11.7678 C.ar    1  UNL1       -0.0043
      7 C          63.7343   84.6366   14.1589 C.3     1  UNL1        0.0310
      8 C          64.1997   85.0564   15.5216 C.3     1  UNL1        0.0307
      9 C          64.3233   86.5135   15.8561 C.2     1  UNL1       -0.0258
     10 C          63.9815   87.5506   14.8277 C.2     1  UNL1       -0.0045
     11 F          60.7237   84.6113    5.2884 F       1  UNL1       -0.2018
     12 C          61.1891   85.0312    6.6511 C.ar    1  UNL1        0.1674
     13 C          62.5675   84.6678    7.1179 C.ar    1  UNL1        0.0320
     14 C          63.0329   85.0877    8.4807 C.ar    1  UNL1        0.0025
     15 C          62.1199   85.8710    9.3766 C.ar    1  UNL1        0.0024
     16 C          60.7415   86.2344    8.9099 C.ar    1  UNL1        0.0320
     17 C          60.2761   85.8145    7.5472 C.ar    1  UNL1        0.1674
     18 F          58.8976   86.1779    7.0804 F       1  UNL1       -0.2018
     19 C          64.1050   89.0076   15.1621 C.ar    1  UNL1        0.0028
     20 C          63.3053   89.5887   16.2903 C.ar    1  UNL1        0.0207
     21 C          63.4289   91.0457   16.6246 C.ar    1  UNL1        0.0989
     22 N          64.3522   91.9217   15.8308 N.ar    1  UNL1       -0.2423
     23 C          65.1519   91.3407   14.7026 C.ar    1  UNL1        0.0989
     24 C          65.0283   89.8837   14.3682 C.ar    1  UNL1        0.0207
@<TRIPOS>BOND
     1    11    12    1
     2    12    13   ar
     3    13    14   ar
     4    14    15   ar
     5    15     1    1
     6     1     2   ar
     7     2     3   ar
     8     3     4   ar
     9     4     5   ar
    10     5     6   ar
    11     5     7    1
    12     7     8    1
    13     8     9    1
    14     9    10    2
    15    10    19    1
    16    19    20   ar
    17    20    21   ar
    18    21    22   ar
    19    22    23   ar
    20    23    24   ar
    21    15    16   ar
    22    16    17   ar
    23    17    18    1
    24    17    12   ar
    25     6     1   ar
    26    24    19   ar
    27    10     4    1
@<TRIPOS>MOLECULE
*****
 24 27 0 0 0
SMALL
GASTEIGER

@<TRIPOS>ATOM
      1 C          63.0725   90.2427   10.9756 C.ar    1  UNL1       -0.0002
      2 C          63.6613   89.9719   12.3283 C.ar    1  UNL1       -0.0000
      3 C          64.6816   90.9091   12.9034 C.ar    1  UNL1       -0.0003
      4 C          65.1131   92.1170   12.1257 C.ar    1  UNL1       -0.0043
      5 C          64.5243   92.3877   10.7729 C.ar    1  UNL1       -0.0218
      6 C          63.5039   91.4506   10.1979 C.ar    1  UNL1       -0.0043
      7 C          64.9557   93.5956    9.9953 C.3     1  UNL1        0.0310
      8 C          65.9760   94.5328   10.5703 C.3     1  UNL1        0.0307
      9 C          66.5649   94.2620   11.9231 C.2     1  UNL1       -0.0258
     10 C          66.1335   93.0541   12.7008 C.2     1  UNL1       -0.0045
     11 F          58.9911   86.4941    8.6753 F       1  UNL1       -0.2018
     12 C          60.0114   87.4313    9.2504 C.ar    1  UNL1        0.1674
     13 C          59.9581   88.8932    8.9189 C.ar    1  UNL1        0.0320
     14 C          60.9785   89.8304    9.4940 C.ar    1  UNL1        0.0025
     15 C          62.0521   89.3056   10.4005 C.ar    1  UNL1        0.0024
     16 C          62.1054   87.8436   10.7320 C.ar    1  UNL1        0.0320
     17 C          61.0851   86.9065   10.1570 C.ar    1  UNL1        0.1674
     18 F          61.1384   85.4445   10.4885 F       1  UNL1       -0.2018
     19 C          66.7223   92.7833   14.0535 C.ar    1  UNL1        0.0028
     20 C          65.8530   92.8387   15.2746 C.ar    1  UNL1        0.0207
     21 C          66.4419   92.5679   16.6274 C.ar    1  UNL1        0.0989
     22 N          67.9001   92.2418   16.7590 N.ar    1  UNL1       -0.2423
     23 C          68.7694   92.1864   15.5378 C.ar    1  UNL1        0.0989
     24 C          68.1805   92.4572   14.1851 C.ar    1  UNL1        0.0207
@<TRIPOS>BOND
     1    11    12    1
     2    12    13   ar
     3    13    14   ar
     4    14    15   ar
     5    15     1    1
     6     1     2   ar
     7     2     3   ar
     8     3     4   ar
     9     4     5   ar
    10     5     6   ar
    11     5     7    1
    12     7     8    1
    13     8     9    1
    14     9    10    2
    15    10    19    1
    16    19    20   ar
    17    20    21   ar
    18    21    22   ar
    19    22    23   ar
    20    23    24   ar
    21    15    16   ar
    22    16    17   ar
    23    17    18    1
    24    17    12   ar
    25     6     1   ar
    26    24    19   ar
    27    10     4    1
