@<TRIPOS>MOLECULE
*****
 24 25 0 0 0
SMALL
GASTEIGER

@<TRIPOS>ATOM
      1 N          63.6744   88.2933   13.3700 N.3     1  UNL1       -0.1559
      2 C          62.9725   87.7680   12.1529 C.3     1  UNL1        0.1168
      3 C          62.7820   86.2907   11.9760 C.3     1  UNL1        0.1099
      4 N          63.2935   85.3387   13.0162 N.pl3   1  UNL1       -0.3045
      5 C          63.9954   85.8640   14.2333 C.3     1  UNL1        0.1099
      6 C          64.1858   87.3413   14.4102 C.3     1  UNL1        0.1168
      7 C          63.1030   83.8614   12.8393 C.ar    1  UNL1        0.0481
      8 C          62.6544   83.0192   13.9965 C.ar    1  UNL1        0.0168
      9 C          62.4640   81.5419   13.8197 C.ar    1  UNL1        0.0309
     10 C          62.7221   80.9068   12.4855 C.ar    1  UNL1        0.1402
     11 F          62.5316   79.4295   12.3086 F       1  UNL1       -0.2042
     12 C          63.1707   81.7491   11.3282 C.ar    1  UNL1        0.0309
     13 C          63.3611   83.2264   11.5051 C.ar    1  UNL1        0.0168
     14 S          63.8648   89.7706   13.5469 S.O2    1  UNL1        0.0457
     15 O          62.7446   90.0304   12.5837 O.2     1  UNL1       -0.1572
     16 O          64.9850   89.5109   14.5100 O.2     1  UNL1       -0.1572
     17 C          64.0553   91.2480   13.7238 C.3     1  UNL1        0.1913
     18 C          65.0223   92.0781   11.4598 C.3     1  UNL1        0.0261
     19 C          65.1236   91.9642   12.9520 C.3     1  UNL1        0.1290
     20 N          66.2933   92.5665   13.6725 N.am    1  UNL1       -0.1645
     21 O          66.1125   93.8153   14.4836 O.3     1  UNL1       -0.2914
     22 C          67.6438   91.9202   13.5817 C.2     1  UNL1        0.3268
     23 O          68.8136   92.5225   14.3022 O.2     1  UNL1       -0.2627
     24 H          65.1863   94.0999   14.4368 H       1  UNL1        0.2417
@<TRIPOS>BOND
     1    18    19    1
     2    19    17    1
     3    17    14    1
     4    14    15    2
     5    14    16    2
     6    14     1    1
     7     1     2    1
     8     2     3    1
     9     3     4    1
    10     4     7    1
    11     7     8   ar
    12     8     9   ar
    13     9    10   ar
    14    10    11    1
    15    10    12   ar
    16    12    13   ar
    17     4     5    1
    18     5     6    1
    19    19    20    1
    20    20    21    1
    21    20    22   am
    22    22    23    2
    23     6     1    1
    24    13     7   ar
    25    21    24    1
@<TRIPOS>MOLECULE
*****
 24 25 0 0 0
SMALL
GASTEIGER

@<TRIPOS>ATOM
      1 N          63.5668   88.2557   13.0997 N.3     1  UNL1       -0.1559
      2 C          64.1351   87.3737   14.1717 C.3     1  UNL1        0.1168
      3 C          63.9412   85.8879   14.1015 C.3     1  UNL1        0.1099
      4 N          63.1790   85.2842   12.9593 N.pl3   1  UNL1       -0.3045
      5 C          62.6108   86.1662   11.8873 C.3     1  UNL1        0.1099
      6 C          62.8047   87.6519   11.9575 C.3     1  UNL1        0.1168
      7 C          62.9851   83.7984   12.8891 C.ar    1  UNL1        0.0481
      8 C          62.5543   83.0398   14.1093 C.ar    1  UNL1        0.0168
      9 C          62.3604   81.5540   14.0391 C.ar    1  UNL1        0.0309
     10 C          62.5973   80.8269   12.7487 C.ar    1  UNL1        0.1402
     11 F          62.4034   79.3411   12.6785 F       1  UNL1       -0.2042
     12 C          63.0281   81.5855   11.5286 C.ar    1  UNL1        0.0309
     13 C          63.2220   83.0713   11.5987 C.ar    1  UNL1        0.0168
     14 S          63.7607   89.7414   13.1699 S.O2    1  UNL1        0.0457
     15 O          64.3305   89.6019   14.5504 O.2     1  UNL1       -0.1572
     16 O          63.1910   89.8810   11.7893 O.2     1  UNL1       -0.1572
     17 C          63.9546   91.2272   13.2401 C.3     1  UNL1        0.1913
     18 C          66.4049   91.9250   13.7492 C.3     1  UNL1        0.0261
     19 C          65.2511   91.8362   12.7949 C.3     1  UNL1        0.1290
     20 N          65.3937   92.3566   11.3952 N.am    1  UNL1       -0.1645
     21 O          64.2385   92.2720   10.4422 O.3     1  UNL1       -0.2914
     22 C          66.6917   92.9614   10.9486 C.2     1  UNL1        0.3268
     23 O          66.8343   93.4818    9.5489 O.2     1  UNL1       -0.2627
     24 H          63.4824   91.8577   10.8867 H       1  UNL1        0.2417
@<TRIPOS>BOND
     1    18    19    1
     2    19    17    1
     3    17    14    1
     4    14    15    2
     5    14    16    2
     6    14     1    1
     7     1     2    1
     8     2     3    1
     9     3     4    1
    10     4     7    1
    11     7     8   ar
    12     8     9   ar
    13     9    10   ar
    14    10    11    1
    15    10    12   ar
    16    12    13   ar
    17     4     5    1
    18     5     6    1
    19    19    20    1
    20    20    21    1
    21    20    22   am
    22    22    23    2
    23     6     1    1
    24    13     7   ar
    25    21    24    1
@<TRIPOS>MOLECULE
*****
 24 25 0 0 0
SMALL
GASTEIGER

@<TRIPOS>ATOM
      1 N          62.5051   90.2492   11.7461 N.3     1  UNL1       -0.1559
      2 C          63.4429   91.2373   11.1183 C.3     1  UNL1        0.1168
      3 C          64.6128   91.7606   11.8976 C.3     1  UNL1        0.1099
      4 N          64.8449   91.2960   13.3047 N.pl3   1  UNL1       -0.3045
      5 C          63.9071   90.3080   13.9326 C.3     1  UNL1        0.1099
      6 C          62.7372   89.7846   13.1533 C.3     1  UNL1        0.1168
      7 C          66.0148   91.8194   14.0841 C.ar    1  UNL1        0.0481
      8 C          67.3755   91.8648   13.4544 C.ar    1  UNL1        0.0168
      9 C          68.5454   92.3882   14.2338 C.ar    1  UNL1        0.0309
     10 C          68.3547   92.8661   15.6427 C.ar    1  UNL1        0.1402
     11 F          69.5246   93.3895   16.4220 F       1  UNL1       -0.2042
     12 C          66.9940   92.8207   16.2723 C.ar    1  UNL1        0.0309
     13 C          65.8241   92.2973   15.4930 C.ar    1  UNL1        0.0168
     14 S          61.3351   89.7259   10.9668 S.O2    1  UNL1        0.0457
     15 O          60.6338   89.3854   12.2483 O.2     1  UNL1       -0.1572
     16 O          62.0365   90.0663    9.6853 O.2     1  UNL1       -0.1572
     17 C          60.1652   89.2025   10.1875 C.3     1  UNL1        0.1913
     18 C          59.4838   87.6162    8.2460 C.3     1  UNL1        0.0261
     19 C          60.2526   87.8675    9.5092 C.3     1  UNL1        0.1290
     20 N          61.1089   86.7836   10.0942 N.am    1  UNL1       -0.1645
     21 O          60.9727   86.4200   11.5431 O.3     1  UNL1       -0.2914
     22 C          62.1014   86.0635    9.2303 C.2     1  UNL1        0.3268
     23 O          62.9577   84.9796    9.8153 O.2     1  UNL1       -0.2627
     24 H          60.2926   86.9767   11.9536 H       1  UNL1        0.2417
@<TRIPOS>BOND
     1    18    19    1
     2    19    17    1
     3    17    14    1
     4    14    15    2
     5    14    16    2
     6    14     1    1
     7     1     2    1
     8     2     3    1
     9     3     4    1
    10     4     7    1
    11     7     8   ar
    12     8     9   ar
    13     9    10   ar
    14    10    11    1
    15    10    12   ar
    16    12    13   ar
    17     4     5    1
    18     5     6    1
    19    19    20    1
    20    20    21    1
    21    20    22   am
    22    22    23    2
    23     6     1    1
    24    13     7   ar
    25    21    24    1
@<TRIPOS>MOLECULE
*****
 24 25 0 0 0
SMALL
GASTEIGER

@<TRIPOS>ATOM
      1 N          63.6336   88.1996   13.2267 N.3     1  UNL1       -0.1559
      2 C          62.8934   87.6400   12.0482 C.3     1  UNL1        0.1168
      3 C          62.6959   86.1585   11.9212 C.3     1  UNL1        0.1099
      4 N          63.2385   85.2366   12.9727 N.pl3   1  UNL1       -0.3045
      5 C          63.9787   85.7962   14.1512 C.3     1  UNL1        0.1099
      6 C          64.1763   87.2777   14.2782 C.3     1  UNL1        0.1168
      7 C          63.0410   83.7551   12.8457 C.ar    1  UNL1        0.0481
      8 C          63.3063   83.0726   11.5366 C.ar    1  UNL1        0.0168
      9 C          63.1087   81.5911   11.4096 C.ar    1  UNL1        0.0309
     10 C          62.6459   80.7921   12.5917 C.ar    1  UNL1        0.1402
     11 F          62.4483   79.3106   12.4647 F       1  UNL1       -0.2042
     12 C          62.3806   81.4746   13.9008 C.ar    1  UNL1        0.0309
     13 C          62.5781   82.9561   14.0278 C.ar    1  UNL1        0.0168
     14 S          63.8312   89.6811   13.3537 S.O2    1  UNL1        0.0457
     15 O          63.1229   89.8875   12.0477 O.2     1  UNL1       -0.1572
     16 O          64.5395   89.4747   14.6598 O.2     1  UNL1       -0.1572
     17 C          64.0287   91.1626   13.4807 C.3     1  UNL1        0.1913
     18 C          66.4949   91.8987   13.8362 C.3     1  UNL1        0.0261
     19 C          65.2824   91.7995   12.9587 C.3     1  UNL1        0.1290
     20 N          65.3236   92.3374   11.5590 N.am    1  UNL1       -0.1645
     21 O          64.2275   91.9985   10.5927 O.3     1  UNL1       -0.2914
     22 C          66.4609   93.2141   11.1256 C.2     1  UNL1        0.3268
     23 O          66.5022   93.7520    9.7259 O.2     1  UNL1       -0.2627
     24 H          63.5764   91.4276   11.0297 H       1  UNL1        0.2417
@<TRIPOS>BOND
     1    18    19    1
     2    19    17    1
     3    17    14    1
     4    14    15    2
     5    14    16    2
     6    14     1    1
     7     1     2    1
     8     2     3    1
     9     3     4    1
    10     4     7    1
    11     7     8   ar
    12     8     9   ar
    13     9    10   ar
    14    10    11    1
    15    10    12   ar
    16    12    13   ar
    17     4     5    1
    18     5     6    1
    19    19    20    1
    20    20    21    1
    21    20    22   am
    22    22    23    2
    23     6     1    1
    24    13     7   ar
    25    21    24    1
@<TRIPOS>MOLECULE
*****
 24 25 0 0 0
SMALL
GASTEIGER

@<TRIPOS>ATOM
      1 N          63.6237   87.8955   13.4289 N.3     1  UNL1       -0.1559
      2 C          64.1507   86.9055   14.4249 C.3     1  UNL1        0.1168
      3 C          63.9715   85.4353   14.1878 C.3     1  UNL1        0.1099
      4 N          63.2653   84.9550   12.9547 N.pl3   1  UNL1       -0.3045
      5 C          62.7383   85.9450   11.9587 C.3     1  UNL1        0.1099
      6 C          62.9175   87.4153   12.1958 C.3     1  UNL1        0.1168
      7 C          63.0862   83.4847   12.7176 C.ar    1  UNL1        0.0481
      8 C          63.3913   82.8996   11.3706 C.ar    1  UNL1        0.0168
      9 C          63.2121   81.4293   11.1335 C.ar    1  UNL1        0.0309
     10 C          62.7279   80.5442   12.2434 C.ar    1  UNL1        0.1402
     11 F          62.5487   79.0739   12.0063 F       1  UNL1       -0.2042
     12 C          62.4228   81.1293   13.5904 C.ar    1  UNL1        0.0309
     13 C          62.6019   82.5996   13.8275 C.ar    1  UNL1        0.0168
     14 S          63.8028   89.3658   13.6660 S.O2    1  UNL1        0.0457
     15 O          65.0225   89.0839   14.4924 O.2     1  UNL1       -0.1572
     16 O          62.5831   89.6477   12.8397 O.2     1  UNL1       -0.1572
     17 C          63.9820   90.8361   13.9031 C.3     1  UNL1        0.1913
     18 C          63.6570   90.9837   16.4765 C.3     1  UNL1        0.0261
     19 C          64.4388   91.3293   15.2440 C.3     1  UNL1        0.1290
     20 N          65.6776   92.1683   15.3523 N.am    1  UNL1       -0.1645
     21 O          66.0230   92.8313   16.6528 O.3     1  UNL1       -0.2914
     22 C          66.5708   92.3443   14.1603 C.2     1  UNL1        0.3268
     23 O          67.8096   93.1833   14.2686 O.2     1  UNL1       -0.2627
     24 H          65.3469   92.6170   17.3145 H       1  UNL1        0.2417
@<TRIPOS>BOND
     1    18    19    1
     2    19    17    1
     3    17    14    1
     4    14    15    2
     5    14    16    2
     6    14     1    1
     7     1     2    1
     8     2     3    1
     9     3     4    1
    10     4     7    1
    11     7     8   ar
    12     8     9   ar
    13     9    10   ar
    14    10    11    1
    15    10    12   ar
    16    12    13   ar
    17     4     5    1
    18     5     6    1
    19    19    20    1
    20    20    21    1
    21    20    22   am
    22    22    23    2
    23     6     1    1
    24    13     7   ar
    25    21    24    1
@<TRIPOS>MOLECULE
*****
 24 25 0 0 0
SMALL
GASTEIGER

@<TRIPOS>ATOM
      1 N          62.5743   89.0529   11.9869 N.3     1  UNL1       -0.1559
      2 C          63.3106   88.4742   13.1585 C.3     1  UNL1        0.1168
      3 C          64.3567   89.2866   13.8626 C.3     1  UNL1        0.1099
      4 N          64.6664   90.6778   13.3951 N.pl3   1  UNL1       -0.3045
      5 C          63.9300   91.2566   12.2235 C.3     1  UNL1        0.1099
      6 C          62.8840   90.4441   11.5194 C.3     1  UNL1        0.1168
      7 C          65.7124   91.4902   14.0992 C.ar    1  UNL1        0.0481
      8 C          65.4839   91.9469   15.5095 C.ar    1  UNL1        0.0168
      9 C          66.5299   92.7594   16.2136 C.ar    1  UNL1        0.0309
     10 C          67.8045   93.1151   15.5074 C.ar    1  UNL1        0.1402
     11 F          68.8505   93.9275   16.2115 F       1  UNL1       -0.2042
     12 C          68.0330   92.6584   14.0970 C.ar    1  UNL1        0.0309
     13 C          66.9870   91.8459   13.3929 C.ar    1  UNL1        0.0168
     14 S          61.5282   88.2405   11.2828 S.O2    1  UNL1        0.0457
     15 O          62.0993   86.9883   11.8793 O.2     1  UNL1       -0.1572
     16 O          60.9571   89.4927   10.6863 O.2     1  UNL1       -0.1572
     17 C          60.4822   87.4281   10.5787 C.3     1  UNL1        0.1913
     18 C          61.8096   86.2730    8.6672 C.3     1  UNL1        0.0261
     19 C          60.6426   87.0970    9.1245 C.3     1  UNL1        0.1290
     20 N          59.6360   87.5900    8.1276 N.am    1  UNL1       -0.1645
     21 O          58.4560   86.7364    7.7686 O.3     1  UNL1       -0.2914
     22 C          59.8095   88.9364    7.4897 C.2     1  UNL1        0.3268
     23 O          58.8029   89.4293    6.4928 O.2     1  UNL1       -0.2627
     24 H          58.4949   85.9049    8.2667 H       1  UNL1        0.2417
@<TRIPOS>BOND
     1    18    19    1
     2    19    17    1
     3    17    14    1
     4    14    15    2
     5    14    16    2
     6    14     1    1
     7     1     2    1
     8     2     3    1
     9     3     4    1
    10     4     7    1
    11     7     8   ar
    12     8     9   ar
    13     9    10   ar
    14    10    11    1
    15    10    12   ar
    16    12    13   ar
    17     4     5    1
    18     5     6    1
    19    19    20    1
    20    20    21    1
    21    20    22   am
    22    22    23    2
    23     6     1    1
    24    13     7   ar
    25    21    24    1
@<TRIPOS>MOLECULE
*****
 24 25 0 0 0
SMALL
GASTEIGER

@<TRIPOS>ATOM
      1 N          63.3043   87.5532   12.7954 N.3     1  UNL1       -0.1559
      2 C          62.5705   87.0425   11.5910 C.3     1  UNL1        0.1168
      3 C          62.4701   85.5663   11.3441 C.3     1  UNL1        0.1099
      4 N          63.1035   84.6010   12.3015 N.pl3   1  UNL1       -0.3045
      5 C          63.8373   85.1117   13.5059 C.3     1  UNL1        0.1099
      6 C          63.9377   86.5878   13.7529 C.3     1  UNL1        0.1168
      7 C          63.0031   83.1248   12.0546 C.ar    1  UNL1        0.0481
      8 C          62.4653   82.2205   13.1236 C.ar    1  UNL1        0.0168
      9 C          62.3649   80.7443   12.8767 C.ar    1  UNL1        0.0309
     10 C          62.8024   80.1726   11.5608 C.ar    1  UNL1        0.1402
     11 F          62.7020   78.6964   11.3139 F       1  UNL1       -0.2042
     12 C          63.3402   81.0769   10.4918 C.ar    1  UNL1        0.0309
     13 C          63.4406   82.5531   10.7387 C.ar    1  UNL1        0.0168
     14 S          63.4046   89.0293   13.0423 S.O2    1  UNL1        0.0457
     15 O          63.1982   89.2881   11.5793 O.2     1  UNL1       -0.1572
     16 O          63.6111   88.7706   14.5053 O.2     1  UNL1       -0.1572
     17 C          63.5050   90.5055   13.2892 C.3     1  UNL1        0.1913
     18 C          65.9704   91.2477   13.6368 C.3     1  UNL1        0.0261
     19 C          64.5861   91.0454   14.1779 C.3     1  UNL1        0.1290
     20 N          64.2828   91.3832   15.6076 N.am    1  UNL1       -0.1645
     21 O          63.1282   90.7266   16.3046 O.3     1  UNL1       -0.2914
     22 C          65.1341   92.3774   16.3402 C.2     1  UNL1        0.3268
     23 O          64.8309   92.7151   17.7699 O.2     1  UNL1       -0.2627
     24 H          62.6865   90.1163   15.6938 H       1  UNL1        0.2417
@<TRIPOS>BOND
     1    18    19    1
     2    19    17    1
     3    17    14    1
     4    14    15    2
     5    14    16    2
     6    14     1    1
     7     1     2    1
     8     2     3    1
     9     3     4    1
    10     4     7    1
    11     7     8   ar
    12     8     9   ar
    13     9    10   ar
    14    10    11    1
    15    10    12   ar
    16    12    13   ar
    17     4     5    1
    18     5     6    1
    19    19    20    1
    20    20    21    1
    21    20    22   am
    22    22    23    2
    23     6     1    1
    24    13     7   ar
    25    21    24    1
@<TRIPOS>MOLECULE
*****
 24 25 0 0 0
SMALL
GASTEIGER

@<TRIPOS>ATOM
      1 N          63.5065   86.1507   14.6544 N.3     1  UNL1       -0.1559
      2 C          63.4283   86.0815   13.1581 C.3     1  UNL1        0.1168
      3 C          63.2825   84.7539   12.4752 C.3     1  UNL1        0.1099
      4 N          63.2149   83.4955   13.2887 N.pl3   1  UNL1       -0.3045
      5 C          63.2932   83.5647   14.7851 C.3     1  UNL1        0.1099
      6 C          63.4390   84.8923   15.4679 C.3     1  UNL1        0.1168
      7 C          63.0692   82.1679   12.6059 C.ar    1  UNL1        0.0481
      8 C          62.6546   80.9608   13.3938 C.ar    1  UNL1        0.0168
      9 C          62.5088   79.6332   12.7110 C.ar    1  UNL1        0.0309
     10 C          62.7776   79.5127   11.2403 C.ar    1  UNL1        0.1402
     11 F          62.6318   78.1851   10.5574 F       1  UNL1       -0.2042
     12 C          63.1922   80.7199   10.4523 C.ar    1  UNL1        0.0309
     13 C          63.3380   82.0475   11.1352 C.ar    1  UNL1        0.0168
     14 S          63.6523   87.4783   15.3372 S.O2    1  UNL1        0.0457
     15 O          64.5334   87.9556   14.2211 O.2     1  UNL1       -0.1572
     16 O          62.7712   87.0010   16.4534 O.2     1  UNL1       -0.1572
     17 C          63.7981   88.8059   16.0200 C.3     1  UNL1        0.1913
     18 C          62.9235   90.0954   13.9411 C.3     1  UNL1        0.0261
     19 C          63.7004   90.0734   15.2240 C.3     1  UNL1        0.1290
     20 N          64.3796   91.3191   15.7109 N.am    1  UNL1       -0.1645
     21 O          63.7192   92.1763   16.7497 O.3     1  UNL1       -0.2914
     22 C          65.7192   91.7075   15.1591 C.2     1  UNL1        0.3268
     23 O          66.3984   92.9532   15.6460 O.2     1  UNL1       -0.2627
     24 H          62.8662   91.7859   16.9964 H       1  UNL1        0.2417
@<TRIPOS>BOND
     1    18    19    1
     2    19    17    1
     3    17    14    1
     4    14    15    2
     5    14    16    2
     6    14     1    1
     7     1     2    1
     8     2     3    1
     9     3     4    1
    10     4     7    1
    11     7     8   ar
    12     8     9   ar
    13     9    10   ar
    14    10    11    1
    15    10    12   ar
    16    12    13   ar
    17     4     5    1
    18     5     6    1
    19    19    20    1
    20    20    21    1
    21    20    22   am
    22    22    23    2
    23     6     1    1
    24    13     7   ar
    25    21    24    1
@<TRIPOS>MOLECULE
*****
 24 25 0 0 0
SMALL
GASTEIGER

@<TRIPOS>ATOM
      1 N          63.4322   85.6491   14.2135 N.3     1  UNL1       -0.1559
      2 C          64.1471   86.4074   15.2923 C.3     1  UNL1        0.1168
      3 C          64.5414   87.8372   15.0688 C.3     1  UNL1        0.1099
      4 N          64.2209   88.5088   13.7664 N.pl3   1  UNL1       -0.3045
      5 C          63.5060   87.7505   12.6876 C.3     1  UNL1        0.1099
      6 C          63.1117   86.3206   12.9112 C.3     1  UNL1        0.1168
      7 C          64.6152   89.9387   13.5429 C.ar    1  UNL1        0.0481
      8 C          64.0956   90.6820   12.3482 C.ar    1  UNL1        0.0168
      9 C          64.4899   92.1119   12.1246 C.ar    1  UNL1        0.0309
     10 C          65.4039   92.7984   13.0958 C.ar    1  UNL1        0.1402
     11 F          65.7982   94.2283   12.8723 F       1  UNL1       -0.2042
     12 C          65.9235   92.0551   14.2905 C.ar    1  UNL1        0.0309
     13 C          65.5292   90.6252   14.5141 C.ar    1  UNL1        0.0168
     14 S          63.0379   84.2192   14.4370 S.O2    1  UNL1        0.0457
     15 O          64.4403   83.8989   14.8619 O.2     1  UNL1       -0.1572
     16 O          61.6354   84.5395   14.0122 O.2     1  UNL1       -0.1572
     17 C          62.6436   82.7893   14.6606 C.3     1  UNL1        0.1913
     18 C          62.3342   80.3828   13.7317 C.3     1  UNL1        0.0261
     19 C          62.9002   81.7652   13.5951 C.3     1  UNL1        0.1290
     20 N          63.7229   82.1234   12.3930 N.am    1  UNL1       -0.1645
     21 O          65.2195   82.0474   12.4587 O.3     1  UNL1       -0.2914
     22 C          63.0489   82.5577   11.1253 C.2     1  UNL1        0.3268
     23 O          63.8716   82.9159    9.9232 O.2     1  UNL1       -0.2627
     24 H          65.4898   81.7521   13.3423 H       1  UNL1        0.2417
@<TRIPOS>BOND
     1    18    19    1
     2    19    17    1
     3    17    14    1
     4    14    15    2
     5    14    16    2
     6    14     1    1
     7     1     2    1
     8     2     3    1
     9     3     4    1
    10     4     7    1
    11     7     8   ar
    12     8     9   ar
    13     9    10   ar
    14    10    11    1
    15    10    12   ar
    16    12    13   ar
    17     4     5    1
    18     5     6    1
    19    19    20    1
    20    20    21    1
    21    20    22   am
    22    22    23    2
    23     6     1    1
    24    13     7   ar
    25    21    24    1
