@<TRIPOS>MOLECULE
*****
 37 41 0 0 0
SMALL
GASTEIGER

@<TRIPOS>ATOM
      1 C          63.9341   89.3888   15.5162 C.ar    1  UNL1        0.0842
      2 N          63.4114   89.9888   16.7877 N.ar    1  UNL1       -0.2437
      3 C          62.8031   89.1075   17.8381 C.ar    1  UNL1        0.0988
      4 C          62.7176   87.6264   17.6170 C.ar    1  UNL1        0.0207
      5 C          63.2403   87.0265   16.3455 C.ar    1  UNL1        0.0043
      6 C          63.1547   85.5453   16.1244 C.ar    1  UNL1        0.0203
      7 C          63.6774   84.9454   14.8528 C.ar    1  UNL1        0.1252
      8 C          64.2857   85.8266   13.8023 C.ar    1  UNL1        0.0202
      9 C          64.3712   87.3078   14.0234 C.ar    1  UNL1        0.0029
     10 C          63.8485   87.9077   15.2951 C.ar    1  UNL1        0.0179
     11 C          63.7891   90.5592   13.2011 C.ar    1  UNL1        0.1401
     12 C          64.3973   91.4404   12.1507 C.ar    1  UNL1        0.0378
     13 C          65.7589   92.0325   12.3647 C.ar    1  UNL1        0.0137
     14 C          66.5121   91.7434   13.6292 C.ar    1  UNL1        0.0579
     15 CL         67.8736   92.3354   13.8433 Cl      1  UNL1       -0.0822
     16 C          65.9038   90.8621   14.6797 C.ar    1  UNL1        0.0159
     17 C          64.5424   90.2701   14.4657 C.ar    1  UNL1        0.0524
     18 C          66.3671   92.9137   11.3142 C.ar    1  UNL1        0.0031
     19 C          66.0644   94.3827   11.3004 C.ar    1  UNL1        0.0002
     20 C          66.6726   95.2640   10.2499 C.ar    1  UNL1        0.0023
     21 C          67.5835   94.6761    9.2132 C.ar    1  UNL1        0.0296
     22 C          67.8862   93.2070    9.2270 C.ar    1  UNL1        0.1401
     23 F          68.7970   92.6191    8.1904 F       1  UNL1       -0.2042
     24 C          67.2779   92.3258   10.2775 C.ar    1  UNL1        0.0297
     25 C          62.0952   89.3023   11.6842 C.3     1  UNL1        0.2525
     26 O          62.4276   89.9671   12.9871 O.3     1  UNL1       -0.4714
     27 S          63.5918   83.4643   14.6317 S.O2    1  UNL1        0.0747
     28 O          65.0893   83.3780   14.6299 O.2     1  UNL1       -0.1499
     29 O          62.0943   83.5505   14.6335 O.2     1  UNL1       -0.1499
     30 N          63.5062   81.9831   14.4106 N.pl3   1  UNL1       -0.1988
     31 H          63.5471   81.3677   15.1779 H       1  UNL1        0.1753
     32 C          63.3584   81.4397   13.0203 C.ar    1  UNL1        0.1503
     33 C          63.7628   82.2747   11.8417 C.ar    1  UNL1        0.0563
     34 C          63.6150   81.7314   10.4514 C.ar    1  UNL1        0.1036
     35 N          63.0627   80.3528   10.2397 N.ar    1  UNL1       -0.2223
     36 C          62.6582   79.5178   11.4183 C.ar    1  UNL1        0.2001
     37 N          62.8061   80.0612   12.8086 N.ar    1  UNL1       -0.2077
@<TRIPOS>BOND
     1    25    26    1
     2    26    11    1
     3    11    12   ar
     4    12    13   ar
     5    13    18    1
     6    18    19   ar
     7    19    20   ar
     8    20    21   ar
     9    21    22   ar
    10    22    23    1
    11    22    24   ar
    12    13    14   ar
    13    14    15    1
    14    14    16   ar
    15    16    17   ar
    16    17     1    1
    17     1     2   ar
    18     2     3   ar
    19     3     4   ar
    20     4     5   ar
    21     5     6   ar
    22     6     7   ar
    23     7    27    1
    24    27    28    2
    25    27    29    2
    26    27    30    1
    27    30    32    1
    28    32    33   ar
    29    33    34   ar
    30    34    35   ar
    31    35    36   ar
    32    36    37   ar
    33     7     8   ar
    34     8     9   ar
    35     9    10   ar
    36    17    11   ar
    37    10     1   ar
    38    24    18   ar
    39    10     5   ar
    40    37    32   ar
    41    30    31    1
@<TRIPOS>MOLECULE
*****
 37 41 0 0 0
SMALL
GASTEIGER

@<TRIPOS>ATOM
      1 C          64.1102   90.3122   15.1250 C.ar    1  UNL1        0.0842
      2 N          63.5447   91.0905   16.2757 N.ar    1  UNL1       -0.2437
      3 C          62.9277   90.3699   17.4376 C.ar    1  UNL1        0.0988
      4 C          62.8764   88.8708   17.4487 C.ar    1  UNL1        0.0207
      5 C          63.4420   88.0924   16.2980 C.ar    1  UNL1        0.0043
      6 C          63.3907   86.5933   16.3092 C.ar    1  UNL1        0.0203
      7 C          63.9562   85.8149   15.1585 C.ar    1  UNL1        0.1252
      8 C          64.5732   86.5356   13.9965 C.ar    1  UNL1        0.0202
      9 C          64.6245   88.0347   13.9853 C.ar    1  UNL1        0.0029
     10 C          64.0589   88.8131   15.1361 C.ar    1  UNL1        0.0179
     11 C          66.0714   91.6817   14.1111 C.ar    1  UNL1        0.1401
     12 C          66.6884   92.4024   12.9492 C.ar    1  UNL1        0.0378
     13 C          65.9611   92.4742   11.6392 C.ar    1  UNL1        0.0137
     14 C          64.6169   91.8253   11.4912 C.ar    1  UNL1        0.0579
     15 CL         63.8896   91.8970   10.1813 Cl      1  UNL1       -0.0822
     16 C          63.9999   91.1046   12.6532 C.ar    1  UNL1        0.0159
     17 C          64.7272   91.0328   13.9630 C.ar    1  UNL1        0.0524
     18 C          66.5781   93.1948   10.4774 C.ar    1  UNL1        0.0031
     19 C          67.6728   92.5427    9.6860 C.ar    1  UNL1        0.0002
     20 C          68.2898   93.2634    8.5240 C.ar    1  UNL1        0.0023
     21 C          67.8121   94.6362    8.1536 C.ar    1  UNL1        0.0296
     22 C          66.7173   95.2883    8.9450 C.ar    1  UNL1        0.1401
     23 F          66.2396   96.6611    8.5746 F       1  UNL1       -0.2042
     24 C          66.1003   94.5676   10.1069 C.ar    1  UNL1        0.0297
     25 C          67.3697   92.8557   16.0311 C.3     1  UNL1        0.2525
     26 O          66.7987   91.6099   15.4210 O.3     1  UNL1       -0.4714
     27 S          63.9049   84.3158   15.1696 S.O2    1  UNL1        0.0747
     28 O          65.3310   84.2636   14.7074 O.2     1  UNL1       -0.1499
     29 O          62.4789   84.3681   15.6318 O.2     1  UNL1       -0.1499
     30 N          63.8536   82.8168   15.1808 N.pl3   1  UNL1       -0.1988
     31 H          64.0666   82.3230   16.0055 H       1  UNL1        0.1753
     32 C          63.4777   82.0699   13.9354 C.ar    1  UNL1        0.1503
     33 C          63.7066   82.6921   12.5898 C.ar    1  UNL1        0.0563
     34 C          63.3308   81.9453   11.3445 C.ar    1  UNL1        0.1036
     35 N          62.7259   80.5763   11.4446 N.ar    1  UNL1       -0.2223
     36 C          62.4970   79.9541   12.7901 C.ar    1  UNL1        0.2001
     37 N          62.8729   80.7009   14.0355 N.ar    1  UNL1       -0.2077
@<TRIPOS>BOND
     1    25    26    1
     2    26    11    1
     3    11    12   ar
     4    12    13   ar
     5    13    18    1
     6    18    19   ar
     7    19    20   ar
     8    20    21   ar
     9    21    22   ar
    10    22    23    1
    11    22    24   ar
    12    13    14   ar
    13    14    15    1
    14    14    16   ar
    15    16    17   ar
    16    17     1    1
    17     1     2   ar
    18     2     3   ar
    19     3     4   ar
    20     4     5   ar
    21     5     6   ar
    22     6     7   ar
    23     7    27    1
    24    27    28    2
    25    27    29    2
    26    27    30    1
    27    30    32    1
    28    32    33   ar
    29    33    34   ar
    30    34    35   ar
    31    35    36   ar
    32    36    37   ar
    33     7     8   ar
    34     8     9   ar
    35     9    10   ar
    36    17    11   ar
    37    10     1   ar
    38    24    18   ar
    39    10     5   ar
    40    37    32   ar
    41    30    31    1
@<TRIPOS>MOLECULE
*****
 37 41 0 0 0
SMALL
GASTEIGER

@<TRIPOS>ATOM
      1 C          62.3055   87.8948   11.0014 C.ar    1  UNL1        0.0842
      2 N          61.5597   88.3912    9.7984 N.ar    1  UNL1       -0.2437
      3 C          61.4959   89.8617    9.5096 C.ar    1  UNL1        0.0988
      4 C          62.1778   90.8359   10.4239 C.ar    1  UNL1        0.0207
      5 C          62.9235   90.3395   11.6270 C.ar    1  UNL1        0.0043
      6 C          63.6055   91.3137   12.5413 C.ar    1  UNL1        0.0203
      7 C          64.3512   90.8173   13.7444 C.ar    1  UNL1        0.1252
      8 C          64.4150   89.3467   14.0332 C.ar    1  UNL1        0.0202
      9 C          63.7331   88.3726   13.1189 C.ar    1  UNL1        0.0029
     10 C          62.9874   88.8690   11.9158 C.ar    1  UNL1        0.0179
     11 C          62.4862   85.4427   10.1620 C.ar    1  UNL1        0.1401
     12 C          62.5500   83.9722   10.4507 C.ar    1  UNL1        0.0378
     13 C          62.4970   83.4831   11.8678 C.ar    1  UNL1        0.0137
     14 C          62.3802   84.4646   12.9961 C.ar    1  UNL1        0.0579
     15 CL         62.3273   83.9756   14.4131 Cl      1  UNL1       -0.0822
     16 C          62.3164   85.9352   12.7073 C.ar    1  UNL1        0.0159
     17 C          62.3693   86.4242   11.2902 C.ar    1  UNL1        0.0524
     18 C          62.5609   82.0126   12.1566 C.ar    1  UNL1        0.0031
     19 C          62.4647   81.5210   13.5704 C.ar    1  UNL1        0.0002
     20 C          62.5285   80.0504   13.8592 C.ar    1  UNL1        0.0023
     21 C          62.6886   79.0714   12.7341 C.ar    1  UNL1        0.0296
     22 C          62.7848   79.5630   11.3202 C.ar    1  UNL1        0.1401
     23 F          62.9449   78.5840   10.1950 F       1  UNL1       -0.2042
     24 C          62.7210   81.0336   11.0314 C.ar    1  UNL1        0.0297
     25 C          62.7685   84.9611    7.6245 C.3     1  UNL1        0.2525
     26 O          62.5391   85.9318    8.7449 O.3     1  UNL1       -0.4714
     27 S          65.0331   91.7915   14.6587 S.O2    1  UNL1        0.0747
     28 O          64.6587   90.9454   15.8394 O.2     1  UNL1       -0.1499
     29 O          65.4075   92.6376   13.4781 O.2     1  UNL1       -0.1499
     30 N          65.7150   92.7657   15.5731 N.pl3   1  UNL1       -0.1988
     31 H          65.1932   93.2521   16.2516 H       1  UNL1        0.1753
     32 C          67.1920   92.9987   15.4536 C.ar    1  UNL1        0.1503
     33 C          68.0307   92.0807   14.6147 C.ar    1  UNL1        0.0563
     34 C          69.5076   92.3137   14.4952 C.ar    1  UNL1        0.1036
     35 N          70.1460   93.4648   15.2147 N.ar    1  UNL1       -0.2223
     36 C          69.3073   94.3829   16.0536 C.ar    1  UNL1        0.2001
     37 N          67.8303   94.1498   16.1730 N.ar    1  UNL1       -0.2077
@<TRIPOS>BOND
     1    25    26    1
     2    26    11    1
     3    11    12   ar
     4    12    13   ar
     5    13    18    1
     6    18    19   ar
     7    19    20   ar
     8    20    21   ar
     9    21    22   ar
    10    22    23    1
    11    22    24   ar
    12    13    14   ar
    13    14    15    1
    14    14    16   ar
    15    16    17   ar
    16    17     1    1
    17     1     2   ar
    18     2     3   ar
    19     3     4   ar
    20     4     5   ar
    21     5     6   ar
    22     6     7   ar
    23     7    27    1
    24    27    28    2
    25    27    29    2
    26    27    30    1
    27    30    32    1
    28    32    33   ar
    29    33    34   ar
    30    34    35   ar
    31    35    36   ar
    32    36    37   ar
    33     7     8   ar
    34     8     9   ar
    35     9    10   ar
    36    17    11   ar
    37    10     1   ar
    38    24    18   ar
    39    10     5   ar
    40    37    32   ar
    41    30    31    1
