@<TRIPOS>MOLECULE
*****
 31 34 0 0 0
SMALL
GASTEIGER

@<TRIPOS>ATOM
      1 C          64.5666   90.8872   13.2181 C.ar    1  UNL1        0.0306
      2 C          64.0515   91.4663   11.9338 C.ar    1  UNL1        0.0141
      3 C          63.1618   90.6480   11.0457 C.ar    1  UNL1        0.0579
      4 CL         62.6468   91.2271    9.7614 Cl      1  UNL1       -0.0822
      5 C          62.7872   89.2506   11.4417 C.ar    1  UNL1        0.0145
      6 C          63.3023   88.6714   12.7261 C.ar    1  UNL1        0.0378
      7 C          64.1920   89.4898   13.6141 C.ar    1  UNL1        0.1387
      8 C          66.5601   92.6142   13.6524 C.2     1  UNL1       -0.0084
      9 C          65.4563   91.7055   14.1062 C.2     1  UNL1       -0.0217
     10 C          65.3985   91.7588   15.6042 C.3     1  UNL1        0.0265
     11 C          66.4665   92.7004   16.0761 C.3     1  UNL1        0.0094
     12 C          67.1844   93.2291   14.8699 C.3     1  UNL1        0.0279
     13 CA         66.9694   94.3856   10.1247 C.ar    1  UNL1        0.0952
     14 C          67.7836   93.3640    9.3874 C.ar    1  UNL1        0.0203
     15 C          68.1899   92.0926   10.0717 C.ar    1  UNL1        0.0031
     16 C          67.7820   91.8426   11.4934 C.ar    1  UNL1        0.0188
     17 C          66.9679   92.8641   12.2307 C.ar    1  UNL1        0.0770
     18 N          66.5616   94.1356   11.5463 N.ar    1  UNL1       -0.2445
     19 O          65.2863   96.3422    9.8278 O.co2   1  UNL1       -0.5430
     20 C          66.5631   95.6570    9.4403 C.2     1  UNL1        0.0905
     21 OXT        67.4337   96.2432    8.3687 O.co2   1  UNL1       -0.5430
     22 O          64.7071   88.9106   14.8985 O.3     1  UNL1       -0.4706
     23 C          63.8398   87.9932   15.7086 C.3     1  UNL1        0.2342
     24 C          63.8676   86.5154   15.4533 C.ar    1  UNL1        0.0488
     25 C          64.8725   85.9374   14.5016 C.ar    1  UNL1        0.0039
     26 C          64.9002   84.4594   14.2464 C.ar    1  UNL1        0.0296
     27 C          63.9229   83.5596   14.9429 C.ar    1  UNL1        0.1424
     28 F          63.9507   82.0817   14.6877 F       1  UNL1       -0.2041
     29 C          62.9179   84.1377   15.8947 C.ar    1  UNL1        0.0590
     30 C          62.8902   85.6155   16.1499 C.ar    1  UNL1        0.1418
     31 F          61.8852   86.1935   17.1016 F       1  UNL1       -0.2043
@<TRIPOS>UNITY_ATOM_ATTR
19 1
charge -1
@<TRIPOS>BOND
     1    19    20   ar
     2    20    21   ar
     3    20    13    1
     4    13    14   ar
     5    14    15   ar
     6    15    16   ar
     7    16    17   ar
     8    17     8    1
     9     8     9    2
    10     9     1    1
    11     1     2   ar
    12     2     3   ar
    13     3     4    1
    14     3     5   ar
    15     5     6   ar
    16     6     7   ar
    17     7    22    1
    18    22    23    1
    19    23    24    1
    20    24    25   ar
    21    25    26   ar
    22    26    27   ar
    23    27    28    1
    24    27    29   ar
    25    29    30   ar
    26    30    31    1
    27     9    10    1
    28    10    11    1
    29    11    12    1
    30    17    18   ar
    31    18    13   ar
    32    12     8    1
    33     7     1   ar
    34    30    24   ar
@<TRIPOS>MOLECULE
*****
 31 34 0 0 0
SMALL
GASTEIGER

@<TRIPOS>ATOM
      1 C          63.2310   89.1421   12.0651 C.ar    1  UNL1        0.0306
      2 C          64.1073   90.3388   11.8417 C.ar    1  UNL1        0.0141
      3 C          63.7183   91.3748   10.8290 C.ar    1  UNL1        0.0579
      4 CL         64.5947   92.5715   10.6057 Cl      1  UNL1       -0.0822
      5 C          62.4530   91.2140   10.0397 C.ar    1  UNL1        0.0145
      6 C          61.5766   90.0173   10.2631 C.ar    1  UNL1        0.0378
      7 C          61.9657   88.9814   11.2757 C.ar    1  UNL1        0.1387
      8 C          64.2178   88.3733   14.4273 C.2     1  UNL1       -0.0084
      9 C          63.6200   88.1062   13.0777 C.2     1  UNL1       -0.0217
     10 C          63.4795   86.6212   12.9186 C.3     1  UNL1        0.0265
     11 C          63.9905   85.9706   14.1698 C.3     1  UNL1        0.0094
     12 C          64.4467   87.0534   15.1022 C.3     1  UNL1        0.0279
     13 CA         66.0396   91.8371   15.0853 C.ar    1  UNL1        0.0952
     14 C          65.1589   92.4230   16.1488 C.ar    1  UNL1        0.0203
     15 C          63.9645   91.6590   16.6385 C.ar    1  UNL1        0.0031
     16 C          63.6508   90.3091   16.0646 C.ar    1  UNL1        0.0188
     17 C          64.5315   89.7232   15.0011 C.ar    1  UNL1        0.0770
     18 N          65.7259   90.4872   14.5115 N.ar    1  UNL1       -0.2445
     19 O          67.7156   92.4177   13.1869 O.co2   1  UNL1       -0.5430
     20 C          67.2340   92.6010   14.5957 C.2     1  UNL1        0.0905
     21 OXT        67.9468   93.5483   15.5147 O.co2   1  UNL1       -0.5430
     22 O          61.0892   87.7846   11.4991 O.3     1  UNL1       -0.4706
     23 C          60.2593   87.2422   10.3734 C.3     1  UNL1        0.2342
     24 C          60.9148   86.4912    9.2526 C.ar    1  UNL1        0.0488
     25 C          62.3516   86.0761    9.3673 C.ar    1  UNL1        0.0039
     26 C          63.0071   85.3250    8.2464 C.ar    1  UNL1        0.0296
     27 C          62.2258   84.9892    7.0108 C.ar    1  UNL1        0.1424
     28 F          62.8813   84.2382    5.8900 F       1  UNL1       -0.2041
     29 C          60.7889   85.4044    6.8961 C.ar    1  UNL1        0.0590
     30 C          60.1334   86.1554    8.0170 C.ar    1  UNL1        0.1418
     31 F          58.6967   86.5705    7.9022 F       1  UNL1       -0.2043
@<TRIPOS>UNITY_ATOM_ATTR
19 1
charge -1
@<TRIPOS>BOND
     1    19    20   ar
     2    20    21   ar
     3    20    13    1
     4    13    14   ar
     5    14    15   ar
     6    15    16   ar
     7    16    17   ar
     8    17     8    1
     9     8     9    2
    10     9     1    1
    11     1     2   ar
    12     2     3   ar
    13     3     4    1
    14     3     5   ar
    15     5     6   ar
    16     6     7   ar
    17     7    22    1
    18    22    23    1
    19    23    24    1
    20    24    25   ar
    21    25    26   ar
    22    26    27   ar
    23    27    28    1
    24    27    29   ar
    25    29    30   ar
    26    30    31    1
    27     9    10    1
    28    10    11    1
    29    11    12    1
    30    17    18   ar
    31    18    13   ar
    32    12     8    1
    33     7     1   ar
    34    30    24   ar
@<TRIPOS>MOLECULE
*****
 31 34 0 0 0
SMALL
GASTEIGER

@<TRIPOS>ATOM
      1 C          62.2201   86.4698   10.8049 C.ar    1  UNL1        0.0306
      2 C          62.7151   85.6758    9.6325 C.ar    1  UNL1        0.0141
      3 C          61.9398   85.6716    8.3484 C.ar    1  UNL1        0.0579
      4 CL         62.4349   84.8776    7.1760 Cl      1  UNL1       -0.0822
      5 C          60.6695   86.4614    8.2366 C.ar    1  UNL1        0.0145
      6 C          60.1744   87.2555    9.4091 C.ar    1  UNL1        0.0378
      7 C          60.9497   87.2596   10.6931 C.ar    1  UNL1        0.1387
      8 C          63.4794   85.2633   12.8305 C.2     1  UNL1       -0.0084
      9 C          62.9953   86.4740   12.0890 C.2     1  UNL1       -0.0217
     10 C          63.4226   87.6896   12.8570 C.3     1  UNL1        0.0265
     11 C          64.1708   87.2302   14.0732 C.3     1  UNL1        0.0094
     12 C          64.2059   85.7307   14.0569 C.3     1  UNL1        0.0279
     13 CA         62.3868   81.4496   12.9374 C.ar    1  UNL1        0.0952
     14 C          62.8609   80.9812   11.5936 C.ar    1  UNL1        0.0203
     15 C          63.5412   81.9401   10.6621 C.ar    1  UNL1        0.0031
     16 C          63.7473   83.3675   11.0744 C.ar    1  UNL1        0.0188
     17 C          63.2733   83.8359   12.4182 C.ar    1  UNL1        0.0770
     18 N          62.5930   82.8770   13.3497 N.ar    1  UNL1       -0.2445
     19 O          60.2812   80.7227   14.2745 O.co2   1  UNL1       -0.5430
     20 C          61.7066   80.4906   13.8688 C.2     1  UNL1        0.0905
     21 OXT        62.4517   79.2996   14.3946 O.co2   1  UNL1       -0.5430
     22 O          60.4547   88.0536   11.8655 O.3     1  UNL1       -0.4706
     23 C          60.4769   89.5528   11.8192 C.3     1  UNL1        0.2342
     24 C          61.7695   90.2768   11.5853 C.ar    1  UNL1        0.0488
     25 C          62.1474   90.7082   10.1993 C.ar    1  UNL1        0.0039
     26 C          63.4402   91.4323    9.9654 C.ar    1  UNL1        0.0296
     27 C          64.3550   91.7250   11.1176 C.ar    1  UNL1        0.1424
     28 F          65.6476   92.4490   10.8837 F       1  UNL1       -0.2041
     29 C          63.9770   91.2936   12.5036 C.ar    1  UNL1        0.0590
     30 C          62.6843   90.5695   12.7375 C.ar    1  UNL1        0.1418
     31 F          62.3065   90.1382   14.1235 F       1  UNL1       -0.2043
@<TRIPOS>UNITY_ATOM_ATTR
19 1
charge -1
@<TRIPOS>BOND
     1    19    20   ar
     2    20    21   ar
     3    20    13    1
     4    13    14   ar
     5    14    15   ar
     6    15    16   ar
     7    16    17   ar
     8    17     8    1
     9     8     9    2
    10     9     1    1
    11     1     2   ar
    12     2     3   ar
    13     3     4    1
    14     3     5   ar
    15     5     6   ar
    16     6     7   ar
    17     7    22    1
    18    22    23    1
    19    23    24    1
    20    24    25   ar
    21    25    26   ar
    22    26    27   ar
    23    27    28    1
    24    27    29   ar
    25    29    30   ar
    26    30    31    1
    27     9    10    1
    28    10    11    1
    29    11    12    1
    30    17    18   ar
    31    18    13   ar
    32    12     8    1
    33     7     1   ar
    34    30    24   ar
@<TRIPOS>MOLECULE
*****
 31 34 0 0 0
SMALL
GASTEIGER

@<TRIPOS>ATOM
      1 C          63.1562   87.0380   12.5243 C.ar    1  UNL1        0.0306
      2 C          63.4174   85.7717   13.2847 C.ar    1  UNL1        0.0141
      3 C          64.1571   85.8189   14.5887 C.ar    1  UNL1        0.0579
      4 CL         64.4183   84.5525   15.3491 Cl      1  UNL1       -0.0822
      5 C          64.6356   87.1324   15.1325 C.ar    1  UNL1        0.0145
      6 C          64.3744   88.3989   14.3721 C.ar    1  UNL1        0.0378
      7 C          63.6347   88.3515   13.0681 C.ar    1  UNL1        0.1387
      8 C          62.2371   85.7812   10.3517 C.2     1  UNL1       -0.0084
      9 C          62.4165   86.9908   11.2202 C.2     1  UNL1       -0.0217
     10 C          61.7263   88.1451   10.5558 C.3     1  UNL1        0.0265
     11 C          61.1203   87.6487    9.2766 C.3     1  UNL1        0.0094
     12 C          61.4360   86.1878    9.1504 C.3     1  UNL1        0.0279
     13 CA         62.7745   82.2544   12.0904 C.ar    1  UNL1        0.0952
     14 C          63.8236   81.6566   11.2005 C.ar    1  UNL1        0.0203
     15 C          64.3438   82.4336   10.0276 C.ar    1  UNL1        0.0031
     16 C          63.8150   83.8084    9.7447 C.ar    1  UNL1        0.0188
     17 C          62.7659   84.4063   10.6346 C.ar    1  UNL1        0.0770
     18 N          62.2457   83.6293   11.8075 N.ar    1  UNL1       -0.2445
     19 O          61.8116   82.1970   14.5028 O.co2   1  UNL1       -0.5430
     20 C          62.2542   81.4774   13.2633 C.2     1  UNL1        0.0905
     21 OXT        62.1766   79.9809   13.1967 O.co2   1  UNL1       -0.5430
     22 O          63.3735   89.6180   12.3077 O.3     1  UNL1       -0.4706
     23 C          63.6247   90.9472   12.9557 C.3     1  UNL1        0.2342
     24 C          64.5887   91.9142   12.3347 C.ar    1  UNL1        0.0488
     25 C          65.6228   92.5920   13.1838 C.ar    1  UNL1        0.0039
     26 C          66.5869   93.5590   12.5626 C.ar    1  UNL1        0.0296
     27 C          66.5167   93.8481   11.0924 C.ar    1  UNL1        0.1424
     28 F          67.4807   94.8150   10.4714 F       1  UNL1       -0.2041
     29 C          65.4825   93.1702   10.2434 C.ar    1  UNL1        0.0590
     30 C          64.5185   92.2032   10.8644 C.ar    1  UNL1        0.1418
     31 F          63.4844   91.5254   10.0153 F       1  UNL1       -0.2043
@<TRIPOS>UNITY_ATOM_ATTR
19 1
charge -1
@<TRIPOS>BOND
     1    19    20   ar
     2    20    21   ar
     3    20    13    1
     4    13    14   ar
     5    14    15   ar
     6    15    16   ar
     7    16    17   ar
     8    17     8    1
     9     8     9    2
    10     9     1    1
    11     1     2   ar
    12     2     3   ar
    13     3     4    1
    14     3     5   ar
    15     5     6   ar
    16     6     7   ar
    17     7    22    1
    18    22    23    1
    19    23    24    1
    20    24    25   ar
    21    25    26   ar
    22    26    27   ar
    23    27    28    1
    24    27    29   ar
    25    29    30   ar
    26    30    31    1
    27     9    10    1
    28    10    11    1
    29    11    12    1
    30    17    18   ar
    31    18    13   ar
    32    12     8    1
    33     7     1   ar
    34    30    24   ar
@<TRIPOS>MOLECULE
*****
 31 34 0 0 0
SMALL
GASTEIGER

@<TRIPOS>ATOM
      1 C          63.2087   86.9209   12.6834 C.ar    1  UNL1        0.0306
      2 C          63.3809   85.6180   13.4062 C.ar    1  UNL1        0.0141
      3 C          64.0812   85.5827   14.7322 C.ar    1  UNL1        0.0579
      4 CL         64.2533   84.2797   15.4550 Cl      1  UNL1       -0.0822
      5 C          64.6093   86.8504   15.3355 C.ar    1  UNL1        0.0145
      6 C          64.4371   88.1536   14.6126 C.ar    1  UNL1        0.0378
      7 C          63.7368   88.1887   13.2866 C.ar    1  UNL1        0.1387
      8 C          62.3213   85.7938   10.4279 C.2     1  UNL1       -0.0084
      9 C          62.5084   86.9562   11.3573 C.2     1  UNL1       -0.0217
     10 C          61.8723   88.1600   10.7279 C.3     1  UNL1        0.0265
     11 C          61.2920   87.7417    9.4095 C.3     1  UNL1        0.0094
     12 C          61.5695   86.2793    9.2241 C.3     1  UNL1        0.0279
     13 CA         62.7419   82.1944   12.0458 C.ar    1  UNL1        0.0952
     14 C          63.7622   81.5887   11.1282 C.ar    1  UNL1        0.0203
     15 C          64.3022   82.3847    9.9771 C.ar    1  UNL1        0.0031
     16 C          63.8219   83.7864    9.7437 C.ar    1  UNL1        0.0188
     17 C          62.8016   84.3921   10.6614 C.ar    1  UNL1        0.0770
     18 N          62.2616   83.5961   11.8124 N.ar    1  UNL1       -0.2445
     19 O          61.7349   82.0980   14.4388 O.co2   1  UNL1       -0.5430
     20 C          62.2019   81.3984   13.1968 C.2     1  UNL1        0.0905
     21 OXT        62.1289   79.9030   13.1058 O.co2   1  UNL1       -0.5430
     22 O          63.5646   89.4918   12.5637 O.3     1  UNL1       -0.4706
     23 C          63.4460   90.7700   13.3398 C.3     1  UNL1        0.2342
     24 C          64.6815   91.4896   13.7932 C.ar    1  UNL1        0.0488
     25 C          65.6258   92.0686   12.7819 C.ar    1  UNL1        0.0039
     26 C          66.8614   92.7883   13.2353 C.ar    1  UNL1        0.0296
     27 C          67.1526   92.9288   14.7001 C.ar    1  UNL1        0.1424
     28 F          68.3882   93.6484   15.1535 F       1  UNL1       -0.2041
     29 C          66.2082   92.3496   15.7114 C.ar    1  UNL1        0.0590
     30 C          64.9726   91.6300   15.2580 C.ar    1  UNL1        0.1418
     31 F          64.0283   91.0509   16.2693 F       1  UNL1       -0.2043
@<TRIPOS>UNITY_ATOM_ATTR
19 1
charge -1
@<TRIPOS>BOND
     1    19    20   ar
     2    20    21   ar
     3    20    13    1
     4    13    14   ar
     5    14    15   ar
     6    15    16   ar
     7    16    17   ar
     8    17     8    1
     9     8     9    2
    10     9     1    1
    11     1     2   ar
    12     2     3   ar
    13     3     4    1
    14     3     5   ar
    15     5     6   ar
    16     6     7   ar
    17     7    22    1
    18    22    23    1
    19    23    24    1
    20    24    25   ar
    21    25    26   ar
    22    26    27   ar
    23    27    28    1
    24    27    29   ar
    25    29    30   ar
    26    30    31    1
    27     9    10    1
    28    10    11    1
    29    11    12    1
    30    17    18   ar
    31    18    13   ar
    32    12     8    1
    33     7     1   ar
    34    30    24   ar
@<TRIPOS>MOLECULE
*****
 31 34 0 0 0
SMALL
GASTEIGER

@<TRIPOS>ATOM
      1 C          63.2952   90.2063   12.9357 C.ar    1  UNL1        0.0306
      2 C          62.7997   89.5913   14.2110 C.ar    1  UNL1        0.0141
      3 C          63.4926   89.8914   15.5071 C.ar    1  UNL1        0.0579
      4 CL         62.9970   89.2764   16.7823 Cl      1  UNL1       -0.0822
      5 C          64.6809   90.8065   15.5280 C.ar    1  UNL1        0.0145
      6 C          65.1764   91.4216   14.2527 C.ar    1  UNL1        0.0378
      7 C          64.4835   91.1214   12.9566 C.ar    1  UNL1        0.1387
      8 C          62.3071   88.5408   11.0933 C.2     1  UNL1       -0.0084
      9 C          62.6024   89.9062   11.6396 C.2     1  UNL1       -0.0217
     10 C          62.0832   90.9188   10.6623 C.3     1  UNL1        0.0265
     11 C          61.4670   90.1793    9.5120 C.3     1  UNL1        0.0094
     12 C          61.6054   88.7096    9.7782 C.3     1  UNL1        0.0279
     13 CA         63.7931   85.9166   13.6731 C.ar    1  UNL1        0.0952
     14 C          63.3442   84.6259   13.0546 C.ar    1  UNL1        0.0203
     15 C          62.5497   84.6401   11.7824 C.ar    1  UNL1        0.0031
     16 C          62.2040   85.9451   11.1286 C.ar    1  UNL1        0.0188
     17 C          62.6528   87.2358   11.7470 C.ar    1  UNL1        0.0770
     18 N          63.4474   87.2216   13.0193 N.ar    1  UNL1       -0.2445
     19 O          66.0751   85.7151   14.8984 O.co2   1  UNL1       -0.5430
     20 C          64.5876   85.9024   14.9453 C.2     1  UNL1        0.0905
     21 OXT        63.8946   86.0754   16.2643 O.co2   1  UNL1       -0.5430
     22 O          64.9791   91.7364   11.6813 O.3     1  UNL1       -0.4706
     23 C          66.3483   92.3465   11.6254 C.3     1  UNL1        0.2342
     24 C          66.6292   93.4729   10.6756 C.ar    1  UNL1        0.0488
     25 C          65.9984   94.8156   10.8970 C.ar    1  UNL1        0.0039
     26 C          66.2794   95.9421    9.9471 C.ar    1  UNL1        0.0296
     27 C          67.1912   95.7258    8.7759 C.ar    1  UNL1        0.1424
     28 F          67.4722   96.8523    7.8261 F       1  UNL1       -0.2041
     29 C          67.8221   94.3830    8.5545 C.ar    1  UNL1        0.0590
     30 C          67.5411   93.2566    9.5044 C.ar    1  UNL1        0.1418
     31 F          68.1720   91.9139    9.2830 F       1  UNL1       -0.2043
@<TRIPOS>UNITY_ATOM_ATTR
19 1
charge -1
@<TRIPOS>BOND
     1    19    20   ar
     2    20    21   ar
     3    20    13    1
     4    13    14   ar
     5    14    15   ar
     6    15    16   ar
     7    16    17   ar
     8    17     8    1
     9     8     9    2
    10     9     1    1
    11     1     2   ar
    12     2     3   ar
    13     3     4    1
    14     3     5   ar
    15     5     6   ar
    16     6     7   ar
    17     7    22    1
    18    22    23    1
    19    23    24    1
    20    24    25   ar
    21    25    26   ar
    22    26    27   ar
    23    27    28    1
    24    27    29   ar
    25    29    30   ar
    26    30    31    1
    27     9    10    1
    28    10    11    1
    29    11    12    1
    30    17    18   ar
    31    18    13   ar
    32    12     8    1
    33     7     1   ar
    34    30    24   ar
@<TRIPOS>MOLECULE
*****
 31 34 0 0 0
SMALL
GASTEIGER

@<TRIPOS>ATOM
      1 C          62.7739   87.2295   11.8448 C.ar    1  UNL1        0.0306
      2 C          62.2980   86.1418   10.9281 C.ar    1  UNL1        0.0141
      3 C          61.5595   86.4909    9.6700 C.ar    1  UNL1        0.0579
      4 CL         61.0836   85.4032    8.7533 Cl      1  UNL1       -0.0822
      5 C          61.2968   87.9278    9.3287 C.ar    1  UNL1        0.0145
      6 C          61.7727   89.0155   10.2455 C.ar    1  UNL1        0.0378
      7 C          62.5112   88.6663   11.5035 C.ar    1  UNL1        0.1387
      8 C          63.8898   85.4989   13.5492 C.2     1  UNL1       -0.0084
      9 C          63.5124   86.8804   13.1029 C.2     1  UNL1       -0.0217
     10 C          64.0032   87.8514   14.1355 C.3     1  UNL1        0.0265
     11 C          64.6840   87.0701   15.2200 C.3     1  UNL1        0.0094
     12 C          64.6138   85.6162   14.8577 C.3     1  UNL1        0.0279
     13 CA         62.5222   81.8585   12.7574 C.ar    1  UNL1        0.0952
     14 C          63.0050   81.6744   11.3492 C.ar    1  UNL1        0.0203
     15 C          63.7828   82.7652   10.6744 C.ar    1  UNL1        0.0031
     16 C          64.0777   84.0400   11.4077 C.ar    1  UNL1        0.0188
     17 C          63.5949   84.2241   12.8159 C.ar    1  UNL1        0.0770
     18 N          62.8171   83.1333   13.4907 N.ar    1  UNL1       -0.2445
     19 O          60.5735   81.1111   14.3046 O.co2   1  UNL1       -0.5430
     20 C          61.7445   80.7677   13.4323 C.2     1  UNL1        0.0905
     21 OXT        62.1378   79.3337   13.2348 O.co2   1  UNL1       -0.5430
     22 O          62.9871   89.7541   12.4203 O.3     1  UNL1       -0.4706
     23 C          63.6828   90.9581   11.8578 C.3     1  UNL1        0.2342
     24 C          64.6765   91.7088   12.6937 C.ar    1  UNL1        0.0488
     25 C          64.9181   91.3026   14.1172 C.ar    1  UNL1        0.0039
     26 C          65.9119   92.0534   14.9532 C.ar    1  UNL1        0.0296
     27 C          66.6641   93.2104   14.3655 C.ar    1  UNL1        0.1424
     28 F          67.6579   93.9612   15.2014 F       1  UNL1       -0.2041
     29 C          66.4225   93.6167   12.9419 C.ar    1  UNL1        0.0590
     30 C          65.4287   92.8660   12.1060 C.ar    1  UNL1        0.1418
     31 F          65.1872   93.2722   10.6825 F       1  UNL1       -0.2043
@<TRIPOS>UNITY_ATOM_ATTR
19 1
charge -1
@<TRIPOS>BOND
     1    19    20   ar
     2    20    21   ar
     3    20    13    1
     4    13    14   ar
     5    14    15   ar
     6    15    16   ar
     7    16    17   ar
     8    17     8    1
     9     8     9    2
    10     9     1    1
    11     1     2   ar
    12     2     3   ar
    13     3     4    1
    14     3     5   ar
    15     5     6   ar
    16     6     7   ar
    17     7    22    1
    18    22    23    1
    19    23    24    1
    20    24    25   ar
    21    25    26   ar
    22    26    27   ar
    23    27    28    1
    24    27    29   ar
    25    29    30   ar
    26    30    31    1
    27     9    10    1
    28    10    11    1
    29    11    12    1
    30    17    18   ar
    31    18    13   ar
    32    12     8    1
    33     7     1   ar
    34    30    24   ar
@<TRIPOS>MOLECULE
*****
 31 34 0 0 0
SMALL
GASTEIGER

@<TRIPOS>ATOM
      1 C          60.7462   88.1906   10.6669 C.ar    1  UNL1        0.0306
      2 C          59.5046   87.8778   11.4482 C.ar    1  UNL1        0.0141
      3 C          58.8164   88.9590   12.2275 C.ar    1  UNL1        0.0579
      4 CL         57.5748   88.6461   13.0087 Cl      1  UNL1       -0.0822
      5 C          59.3699   90.3532   12.2255 C.ar    1  UNL1        0.0145
      6 C          60.6116   90.6661   11.4442 C.ar    1  UNL1        0.0378
      7 C          61.2997   89.5848   10.6649 C.ar    1  UNL1        0.1387
      8 C          62.4075   86.1092   10.4376 C.2     1  UNL1       -0.0084
      9 C          61.4344   87.1094    9.8875 C.2     1  UNL1       -0.0217
     10 C          61.2702   86.8385    8.4213 C.3     1  UNL1        0.0265
     11 C          62.1419   85.6709    8.0652 C.3     1  UNL1        0.0094
     12 C          62.8448   85.2201    9.3113 C.3     1  UNL1        0.0279
     13 CA         63.2313   84.6128   14.0198 C.ar    1  UNL1        0.0952
     14 C          63.7750   85.8254   14.7154 C.ar    1  UNL1        0.0203
     15 C          63.8628   87.1327   13.9850 C.ar    1  UNL1        0.0031
     16 C          63.4070   87.2273   12.5591 C.ar    1  UNL1        0.0188
     17 C          62.8633   86.0146   11.8635 C.ar    1  UNL1        0.0770
     18 N          62.7755   84.7073   12.5939 N.ar    1  UNL1       -0.2445
     19 O          64.2750   82.8594   15.6280 O.co2   1  UNL1       -0.5430
     20 C          63.1435   83.3055   14.7501 C.2     1  UNL1        0.0905
     21 OXT        61.9242   82.4444   14.6026 O.co2   1  UNL1       -0.5430
     22 O          62.5414   89.8977    9.8836 O.3     1  UNL1       -0.4706
     23 C          63.2384   91.2116   10.0777 C.3     1  UNL1        0.2342
     24 C          64.1260   91.4211   11.2686 C.ar    1  UNL1        0.0488
     25 C          63.8334   90.7098   12.5563 C.ar    1  UNL1        0.0039
     26 C          64.7210   90.9192   13.7474 C.ar    1  UNL1        0.0296
     27 C          65.9012   91.8400   13.6505 C.ar    1  UNL1        0.1424
     28 F          66.7887   92.0494   14.8415 F       1  UNL1       -0.2041
     29 C          66.1937   92.5513   12.3627 C.ar    1  UNL1        0.0590
     30 C          65.3062   92.3419   11.1717 C.ar    1  UNL1        0.1418
     31 F          65.5987   93.0532    9.8840 F       1  UNL1       -0.2043
@<TRIPOS>UNITY_ATOM_ATTR
19 1
charge -1
@<TRIPOS>BOND
     1    19    20   ar
     2    20    21   ar
     3    20    13    1
     4    13    14   ar
     5    14    15   ar
     6    15    16   ar
     7    16    17   ar
     8    17     8    1
     9     8     9    2
    10     9     1    1
    11     1     2   ar
    12     2     3   ar
    13     3     4    1
    14     3     5   ar
    15     5     6   ar
    16     6     7   ar
    17     7    22    1
    18    22    23    1
    19    23    24    1
    20    24    25   ar
    21    25    26   ar
    22    26    27   ar
    23    27    28    1
    24    27    29   ar
    25    29    30   ar
    26    30    31    1
    27     9    10    1
    28    10    11    1
    29    11    12    1
    30    17    18   ar
    31    18    13   ar
    32    12     8    1
    33     7     1   ar
    34    30    24   ar
@<TRIPOS>MOLECULE
*****
 31 34 0 0 0
SMALL
GASTEIGER

@<TRIPOS>ATOM
      1 C          63.1325   89.2661   13.1084 C.ar    1  UNL1        0.0306
      2 C          63.1288   90.1864   14.2929 C.ar    1  UNL1        0.0141
      3 C          63.5759   89.6847   15.6339 C.ar    1  UNL1        0.0579
      4 CL         63.5722   90.6051   16.8183 Cl      1  UNL1       -0.0822
      5 C          64.0268   88.2627   15.7906 C.ar    1  UNL1        0.0145
      6 C          64.0306   87.3422   14.6061 C.ar    1  UNL1        0.0378
      7 C          63.5834   87.8440   13.2651 C.ar    1  UNL1        0.1387
      8 C          63.3084   90.8918   10.9940 C.2     1  UNL1       -0.0084
      9 C          62.6853   89.7677   11.7674 C.2     1  UNL1       -0.0217
     10 C          61.5366   89.2333   10.9643 C.3     1  UNL1        0.0265
     11 C          61.4497   90.0272    9.6946 C.3     1  UNL1        0.0094
     12 C          62.5447   91.0522    9.7129 C.3     1  UNL1        0.0279
     13 CA         66.4943   93.2529   10.8349 C.ar    1  UNL1        0.0952
     14 C          66.8472   93.3512   12.2895 C.ar    1  UNL1        0.0203
     15 C          66.0204   92.6297   13.3123 C.ar    1  UNL1        0.0031
     16 C          64.8408   91.8099   12.8804 C.ar    1  UNL1        0.0188
     17 C          64.4880   91.7116   11.4259 C.ar    1  UNL1        0.0770
     18 N          65.3147   92.4331   10.4031 N.ar    1  UNL1       -0.2445
     19 O          68.7909   93.6953    9.7036 O.co2   1  UNL1       -0.5430
     20 C          67.3211   93.9743    9.8122 C.2     1  UNL1        0.0905
     21 OXT        66.6780   94.9748    8.8981 O.co2   1  UNL1       -0.5430
     22 O          63.5871   86.9236   12.0806 O.3     1  UNL1       -0.4706
     23 C          62.5250   85.8733   11.9435 C.3     1  UNL1        0.2342
     24 C          62.7756   84.4829   12.4472 C.ar    1  UNL1        0.0488
     25 C          62.4639   84.1339   13.8723 C.ar    1  UNL1        0.0039
     26 C          62.7146   82.7433   14.3760 C.ar    1  UNL1        0.0296
     27 C          63.2771   81.7019   13.4546 C.ar    1  UNL1        0.1424
     28 F          63.5277   80.3114   13.9584 F       1  UNL1       -0.2041
     29 C          63.5888   82.0510   12.0295 C.ar    1  UNL1        0.0590
     30 C          63.3382   83.4414   11.5258 C.ar    1  UNL1        0.1418
     31 F          63.6499   83.7904   10.1007 F       1  UNL1       -0.2043
@<TRIPOS>UNITY_ATOM_ATTR
19 1
charge -1
@<TRIPOS>BOND
     1    19    20   ar
     2    20    21   ar
     3    20    13    1
     4    13    14   ar
     5    14    15   ar
     6    15    16   ar
     7    16    17   ar
     8    17     8    1
     9     8     9    2
    10     9     1    1
    11     1     2   ar
    12     2     3   ar
    13     3     4    1
    14     3     5   ar
    15     5     6   ar
    16     6     7   ar
    17     7    22    1
    18    22    23    1
    19    23    24    1
    20    24    25   ar
    21    25    26   ar
    22    26    27   ar
    23    27    28    1
    24    27    29   ar
    25    29    30   ar
    26    30    31    1
    27     9    10    1
    28    10    11    1
    29    11    12    1
    30    17    18   ar
    31    18    13   ar
    32    12     8    1
    33     7     1   ar
    34    30    24   ar
