@<TRIPOS>MOLECULE
*****
 28 30 0 0 0
SMALL
GASTEIGER

@<TRIPOS>ATOM
      1 C          66.0117   92.1535   14.0391 C.ar    1  UNL1        0.0494
      2 C          65.3943   90.8065   14.2721 C.ar    1  UNL1        0.0042
      3 C          64.4534   90.2271   13.2576 C.ar    1  UNL1        0.0001
      4 C          63.8361   88.8801   13.4906 C.ar    1  UNL1       -0.0002
      5 C          62.8952   88.3007   12.4762 C.ar    1  UNL1       -0.0017
      6 C          62.5717   89.0684   11.2288 C.ar    1  UNL1        0.0070
      7 C          63.1891   90.4154   10.9958 C.ar    1  UNL1       -0.0017
      8 C          64.1299   90.9948   12.0102 C.ar    1  UNL1       -0.0005
      9 C          64.7474   92.3419   11.7773 C.ar    1  UNL1       -0.0041
     10 C          65.6882   92.9212   12.7917 C.ar    1  UNL1       -0.0175
     11 C          66.3056   94.2683   12.5587 C.3     1  UNL1        0.0312
     12 C          69.3310   93.5472   15.7095 C.3     1  UNL1        0.1109
     13 N          68.3901   92.9678   14.6951 N.am    1  UNL1       -0.2992
     14 C          66.9526   92.7330   15.0535 C.2     1  UNL1        0.2456
     15 O          66.4560   93.0775   16.4264 O.2     1  UNL1       -0.2702
     16 H          68.7160   92.7417   13.7941 H       1  UNL1        0.1498
     17 C          61.6308   88.4889   10.2143 C.3     1  UNL1        0.1410
     18 O          62.7964   87.9371    9.4483 O.3     1  UNL1       -0.3771
     19 H          63.6213   88.1714    9.9017 H       1  UNL1        0.2112
     20 C          60.4652   89.0408   10.9803 C.ar    1  UNL1        0.0825
     21 C          59.9849   90.4615   10.9526 C.ar    1  UNL1        0.1157
     22 N          58.7980   90.5675   11.8637 N.ar    1  UNL1       -0.2228
     23 C          58.5448   89.2122   12.4546 C.ar    1  UNL1        0.1749
     24 N          59.5751   88.2687   11.9087 N.ar    1  UNL1       -0.3361
     25 H          59.6534   87.3108   12.1221 H       1  UNL1        0.1673
     26 C          60.6899   87.9096    9.2000 C.3     1  UNL1        0.0340
     27 C          60.5096   86.4233    9.1070 C.3     1  UNL1        0.0031
     28 C          59.9293   88.8164    8.2785 C.3     1  UNL1        0.0031
@<TRIPOS>BOND
     1    12    13    1
     2    13    14   am
     3    14    15    2
     4    14     1    1
     5     1     2   ar
     6     2     3   ar
     7     3     4   ar
     8     4     5   ar
     9     5     6   ar
    10     6    17    1
    11    17    18    1
    12    17    20    1
    13    20    21   ar
    14    21    22   ar
    15    22    23   ar
    16    23    24   ar
    17    17    26    1
    18    26    27    1
    19    26    28    1
    20     6     7   ar
    21     7     8   ar
    22     8     9   ar
    23     9    10   ar
    24    10    11    1
    25    10     1   ar
    26     8     3   ar
    27    24    20   ar
    28    13    16    1
    29    18    19    1
    30    24    25    1
@<TRIPOS>MOLECULE
*****
 28 30 0 0 0
SMALL
GASTEIGER

@<TRIPOS>ATOM
      1 C          64.1608   89.4353   13.7019 C.ar    1  UNL1        0.0494
      2 C          64.5125   88.4185   14.7472 C.ar    1  UNL1        0.0042
      3 C          64.0900   86.9895   14.5756 C.ar    1  UNL1        0.0001
      4 C          64.4417   85.9727   15.6208 C.ar    1  UNL1       -0.0002
      5 C          64.0192   84.5438   15.4491 C.ar    1  UNL1       -0.0017
      6 C          63.2451   84.1315   14.2322 C.ar    1  UNL1        0.0070
      7 C          62.8934   85.1483   13.1870 C.ar    1  UNL1       -0.0017
      8 C          63.3159   86.5772   13.3587 C.ar    1  UNL1       -0.0005
      9 C          62.9643   87.5941   12.3134 C.ar    1  UNL1       -0.0041
     10 C          63.3867   89.0230   12.4851 C.ar    1  UNL1       -0.0175
     11 C          63.0351   90.0399   11.4398 C.3     1  UNL1        0.0312
     12 C          65.9772   92.9090   13.0822 C.3     1  UNL1        0.1109
     13 N          65.5547   91.4800   12.9106 N.am    1  UNL1       -0.2992
     14 C          64.5833   90.8643   13.8736 C.2     1  UNL1        0.2456
     15 O          64.0344   91.6776   15.0081 O.2     1  UNL1       -0.2702
     16 H          65.9150   90.9462   12.1660 H       1  UNL1        0.1498
     17 C          62.8226   82.7025   14.0606 C.3     1  UNL1        0.1410
     18 O          62.2732   82.6972   15.4563 O.3     1  UNL1       -0.3771
     19 H          62.4123   83.5673   15.8619 H       1  UNL1        0.2112
     20 C          63.3720   82.7077   12.6649 C.ar    1  UNL1        0.0825
     21 C          64.8204   82.8084   12.2878 C.ar    1  UNL1        0.1157
     22 N          64.9130   82.7761   10.7910 N.ar    1  UNL1       -0.2228
     23 C          63.5219   82.6555   10.2430 C.ar    1  UNL1        0.1749
     24 N          62.5695   82.6132   11.4011 N.ar    1  UNL1       -0.3361
     25 H          61.5897   82.5369   11.3421 H       1  UNL1        0.1673
     26 C          62.4002   81.2735   13.8890 C.3     1  UNL1        0.0340
     27 C          60.9501   80.9029   13.9886 C.3     1  UNL1        0.0031
     28 C          63.4279   80.2150   13.6176 C.3     1  UNL1        0.0031
@<TRIPOS>BOND
     1    12    13    1
     2    13    14   am
     3    14    15    2
     4    14     1    1
     5     1     2   ar
     6     2     3   ar
     7     3     4   ar
     8     4     5   ar
     9     5     6   ar
    10     6    17    1
    11    17    18    1
    12    17    20    1
    13    20    21   ar
    14    21    22   ar
    15    22    23   ar
    16    23    24   ar
    17    17    26    1
    18    26    27    1
    19    26    28    1
    20     6     7   ar
    21     7     8   ar
    22     8     9   ar
    23     9    10   ar
    24    10    11    1
    25    10     1   ar
    26     8     3   ar
    27    24    20   ar
    28    13    16    1
    29    18    19    1
    30    24    25    1
@<TRIPOS>MOLECULE
*****
 28 30 0 0 0
SMALL
GASTEIGER

@<TRIPOS>ATOM
      1 C          65.6998   92.4041   12.8312 C.ar    1  UNL1        0.0494
      2 C          64.7347   91.3690   13.3283 C.ar    1  UNL1        0.0042
      3 C          63.7535   90.7426   12.3823 C.ar    1  UNL1        0.0001
      4 C          62.7884   89.7075   12.8794 C.ar    1  UNL1       -0.0002
      5 C          61.8073   89.0812   11.9333 C.ar    1  UNL1       -0.0017
      6 C          61.7912   89.4900   10.4902 C.ar    1  UNL1        0.0070
      7 C          62.7563   90.5251    9.9931 C.ar    1  UNL1       -0.0017
      8 C          63.7374   91.1514   10.9391 C.ar    1  UNL1       -0.0005
      9 C          64.7026   92.1865   10.4420 C.ar    1  UNL1       -0.0041
     10 C          65.6837   92.8129   11.3881 C.ar    1  UNL1       -0.0175
     11 C          66.6489   93.8480   10.8910 C.3     1  UNL1        0.0312
     12 C          68.8139   92.8530   15.2501 C.3     1  UNL1        0.1109
     13 N          67.8327   92.2267   14.3041 N.am    1  UNL1       -0.2992
     14 C          66.6810   93.0305   13.7773 C.2     1  UNL1        0.2456
     15 O          66.5105   94.4605   14.1965 O.2     1  UNL1       -0.2702
     16 H          67.9446   91.2881   14.0289 H       1  UNL1        0.1498
     17 C          60.8100   88.8636    9.5442 C.3     1  UNL1        0.1410
     18 O          60.2399   90.2171    9.2392 O.3     1  UNL1       -0.3771
     19 H          60.7152   90.8907    9.7502 H       1  UNL1        0.2112
     20 C          61.3801   87.5101    9.8491 C.ar    1  UNL1        0.0825
     21 C          62.3331   86.7395    8.9842 C.ar    1  UNL1        0.1157
     22 N          62.6393   85.4426    9.6731 N.ar    1  UNL1       -0.2228
     23 C          61.8755   85.4117   10.9638 C.ar    1  UNL1        0.1749
     24 N          61.0973   86.6895   11.0725 N.ar    1  UNL1       -0.3361
     25 H          60.5049   86.9447   11.8163 H       1  UNL1        0.1673
     26 C          59.8288   88.2372    8.5982 C.3     1  UNL1        0.0340
     27 C          59.1365   86.9603    8.9726 C.3     1  UNL1        0.0031
     28 C          59.5400   88.8877    7.2777 C.3     1  UNL1        0.0031
@<TRIPOS>BOND
     1    12    13    1
     2    13    14   am
     3    14    15    2
     4    14     1    1
     5     1     2   ar
     6     2     3   ar
     7     3     4   ar
     8     4     5   ar
     9     5     6   ar
    10     6    17    1
    11    17    18    1
    12    17    20    1
    13    20    21   ar
    14    21    22   ar
    15    22    23   ar
    16    23    24   ar
    17    17    26    1
    18    26    27    1
    19    26    28    1
    20     6     7   ar
    21     7     8   ar
    22     8     9   ar
    23     9    10   ar
    24    10    11    1
    25    10     1   ar
    26     8     3   ar
    27    24    20   ar
    28    13    16    1
    29    18    19    1
    30    24    25    1
@<TRIPOS>MOLECULE
*****
 28 30 0 0 0
SMALL
GASTEIGER

@<TRIPOS>ATOM
      1 C          64.6950   91.3000   14.5751 C.ar    1  UNL1        0.0494
      2 C          64.7351   91.5739   13.1009 C.ar    1  UNL1        0.0042
      3 C          63.7487   90.9086   12.1873 C.ar    1  UNL1        0.0001
      4 C          63.7888   91.1825   10.7131 C.ar    1  UNL1       -0.0002
      5 C          62.8025   90.5172    9.7996 C.ar    1  UNL1       -0.0017
      6 C          61.7760   89.5781   10.3603 C.ar    1  UNL1        0.0070
      7 C          61.7359   89.3043   11.8345 C.ar    1  UNL1       -0.0017
      8 C          62.7223   89.9695   12.7480 C.ar    1  UNL1       -0.0005
      9 C          62.6822   89.6956   14.2223 C.ar    1  UNL1       -0.0041
     10 C          63.6685   90.3609   15.1358 C.ar    1  UNL1       -0.0175
     11 C          63.6285   90.0870   16.6101 C.3     1  UNL1        0.0312
     12 C          68.1396   92.4628   16.1665 C.3     1  UNL1        0.1109
     13 N          67.1532   91.7975   15.2530 N.am    1  UNL1       -0.2992
     14 C          65.6814   91.9653   15.4886 C.2     1  UNL1        0.2456
     15 O          65.1959   92.7982   16.6377 O.2     1  UNL1       -0.2702
     16 H          67.4719   91.2508   14.4988 H       1  UNL1        0.1498
     17 C          60.7896   88.9129    9.4468 C.3     1  UNL1        0.1410
     18 O          60.2324   90.2540    9.0716 O.3     1  UNL1       -0.3771
     19 H          60.7137   90.9487    9.5477 H       1  UNL1        0.2112
     20 C          61.3468   87.5717    9.8219 C.ar    1  UNL1        0.0825
     21 C          62.3198   86.7641    9.0149 C.ar    1  UNL1        0.1157
     22 N          62.6032   85.4958    9.7642 N.ar    1  UNL1       -0.2228
     23 C          61.8053   85.5196   11.0342 C.ar    1  UNL1        0.1749
     24 N          61.0289   86.8025   11.0699 N.ar    1  UNL1       -0.3361
     25 H          60.4179   87.0894   11.7865 H       1  UNL1        0.1673
     26 C          59.8033   88.2476    8.5332 C.3     1  UNL1        0.0340
     27 C          59.4740   88.8660    7.2069 C.3     1  UNL1        0.0031
     28 C          59.1462   86.9639    8.9461 C.3     1  UNL1        0.0031
@<TRIPOS>BOND
     1    12    13    1
     2    13    14   am
     3    14    15    2
     4    14     1    1
     5     1     2   ar
     6     2     3   ar
     7     3     4   ar
     8     4     5   ar
     9     5     6   ar
    10     6    17    1
    11    17    18    1
    12    17    20    1
    13    20    21   ar
    14    21    22   ar
    15    22    23   ar
    16    23    24   ar
    17    17    26    1
    18    26    27    1
    19    26    28    1
    20     6     7   ar
    21     7     8   ar
    22     8     9   ar
    23     9    10   ar
    24    10    11    1
    25    10     1   ar
    26     8     3   ar
    27    24    20   ar
    28    13    16    1
    29    18    19    1
    30    24    25    1
@<TRIPOS>MOLECULE
*****
 28 30 0 0 0
SMALL
GASTEIGER

@<TRIPOS>ATOM
      1 C          61.7354   87.4344   10.0134 C.ar    1  UNL1        0.0494
      2 C          62.0309   88.9047    9.9819 C.ar    1  UNL1        0.0042
      3 C          62.8233   89.5343   11.0891 C.ar    1  UNL1        0.0001
      4 C          63.1188   91.0045   11.0577 C.ar    1  UNL1       -0.0002
      5 C          63.9111   91.6340   12.1649 C.ar    1  UNL1       -0.0017
      6 C          64.4079   90.7933   13.3035 C.ar    1  UNL1        0.0070
      7 C          64.1124   89.3231   13.3349 C.ar    1  UNL1       -0.0017
      8 C          63.3201   88.6936   12.2277 C.ar    1  UNL1       -0.0005
      9 C          63.0245   87.2233   12.2592 C.ar    1  UNL1       -0.0041
     10 C          62.2322   86.5937   11.1520 C.ar    1  UNL1       -0.0175
     11 C          61.9366   85.1234   11.1834 C.3     1  UNL1        0.0312
     12 C          58.7121   86.5502    7.5993 C.3     1  UNL1        0.1109
     13 N          59.5044   87.1798    8.7064 N.am    1  UNL1       -0.2992
     14 C          60.9430   86.8048    8.9062 C.2     1  UNL1        0.2456
     15 O          61.5892   85.8003    7.9988 O.2     1  UNL1       -0.2702
     16 H          59.0803   87.8391    9.3020 H       1  UNL1        0.1498
     17 C          65.2003   91.4229   14.4107 C.3     1  UNL1        0.1410
     18 O          64.4884   90.5608   15.4105 O.3     1  UNL1       -0.3771
     19 H          63.8518   89.9910   14.9510 H       1  UNL1        0.2112
     20 C          65.9122   92.2851   13.4108 C.ar    1  UNL1        0.0825
     21 C          66.9354   91.8214   12.4167 C.ar    1  UNL1        0.1157
     22 N          67.3815   93.0122   11.6210 N.ar    1  UNL1       -0.2228
     23 C          66.6341   94.2119   12.1233 C.ar    1  UNL1        0.1749
     24 N          65.7260   93.7625   13.2294 N.ar    1  UNL1       -0.3361
     25 H          65.1151   94.3365   13.7458 H       1  UNL1        0.1673
     26 C          65.9927   92.0526   15.5178 C.3     1  UNL1        0.0340
     27 C          65.2859   92.7050   16.6687 C.3     1  UNL1        0.0031
     28 C          67.4919   92.0297   15.4739 C.3     1  UNL1        0.0031
@<TRIPOS>BOND
     1    12    13    1
     2    13    14   am
     3    14    15    2
     4    14     1    1
     5     1     2   ar
     6     2     3   ar
     7     3     4   ar
     8     4     5   ar
     9     5     6   ar
    10     6    17    1
    11    17    18    1
    12    17    20    1
    13    20    21   ar
    14    21    22   ar
    15    22    23   ar
    16    23    24   ar
    17    17    26    1
    18    26    27    1
    19    26    28    1
    20     6     7   ar
    21     7     8   ar
    22     8     9   ar
    23     9    10   ar
    24    10    11    1
    25    10     1   ar
    26     8     3   ar
    27    24    20   ar
    28    13    16    1
    29    18    19    1
    30    24    25    1
@<TRIPOS>MOLECULE
*****
 28 30 0 0 0
SMALL
GASTEIGER

@<TRIPOS>ATOM
      1 C          63.9020   89.8048   12.8260 C.ar    1  UNL1        0.0494
      2 C          63.1834   88.8345   11.9360 C.ar    1  UNL1        0.0042
      3 C          63.0549   87.3966   12.3434 C.ar    1  UNL1        0.0001
      4 C          62.3363   86.4263   11.4535 C.ar    1  UNL1       -0.0002
      5 C          62.2079   84.9884   11.8609 C.ar    1  UNL1       -0.0017
      6 C          62.7981   84.5208   13.1582 C.ar    1  UNL1        0.0070
      7 C          63.5167   85.4912   14.0481 C.ar    1  UNL1       -0.0017
      8 C          63.6451   86.9290   13.6407 C.ar    1  UNL1       -0.0005
      9 C          64.3638   87.8994   14.5307 C.ar    1  UNL1       -0.0041
     10 C          64.4922   89.3373   14.1233 C.ar    1  UNL1       -0.0175
     11 C          65.2108   90.3077   15.0133 C.3     1  UNL1        0.0312
     12 C          65.5126   93.2620   11.7286 C.3     1  UNL1        0.1109
     13 N          65.3841   91.8241   12.1360 N.am    1  UNL1       -0.2992
     14 C          64.0305   91.2428   12.4186 C.2     1  UNL1        0.2456
     15 O          62.8054   92.0993   12.2938 O.2     1  UNL1       -0.2702
     16 H          66.1881   91.2620   12.2179 H       1  UNL1        0.1498
     17 C          62.6696   83.0829   13.5656 C.3     1  UNL1        0.1410
     18 O          62.0622   83.5067   14.8700 O.3     1  UNL1       -0.3771
     19 H          62.0096   84.4747   14.9028 H       1  UNL1        0.2112
     20 C          63.2770   82.6591   12.2612 C.ar    1  UNL1        0.0825
     21 C          64.5593   83.1737   11.6773 C.ar    1  UNL1        0.1157
     22 N          64.7836   82.4789   10.3668 N.ar    1  UNL1       -0.2228
     23 C          63.6399   81.5350   10.1409 C.ar    1  UNL1        0.1749
     24 N          62.7088   81.6464   11.3117 N.ar    1  UNL1       -0.3361
     25 H          61.8717   81.1432   11.4352 H       1  UNL1        0.1673
     26 C          62.5411   81.6450   13.9729 C.3     1  UNL1        0.0340
     27 C          63.7702   80.8055   14.1589 C.3     1  UNL1        0.0031
     28 C          61.1836   81.0466   14.1942 C.3     1  UNL1        0.0031
@<TRIPOS>BOND
     1    12    13    1
     2    13    14   am
     3    14    15    2
     4    14     1    1
     5     1     2   ar
     6     2     3   ar
     7     3     4   ar
     8     4     5   ar
     9     5     6   ar
    10     6    17    1
    11    17    18    1
    12    17    20    1
    13    20    21   ar
    14    21    22   ar
    15    22    23   ar
    16    23    24   ar
    17    17    26    1
    18    26    27    1
    19    26    28    1
    20     6     7   ar
    21     7     8   ar
    22     8     9   ar
    23     9    10   ar
    24    10    11    1
    25    10     1   ar
    26     8     3   ar
    27    24    20   ar
    28    13    16    1
    29    18    19    1
    30    24    25    1
@<TRIPOS>MOLECULE
*****
 28 30 0 0 0
SMALL
GASTEIGER

@<TRIPOS>ATOM
      1 C          61.5095   88.2295   10.3205 C.ar    1  UNL1        0.0494
      2 C          62.3193   87.8625   11.5286 C.ar    1  UNL1        0.0042
      3 C          63.1527   88.9025   12.2172 C.ar    1  UNL1        0.0001
      4 C          63.9625   88.5354   13.4252 C.ar    1  UNL1       -0.0002
      5 C          64.7958   89.5754   14.1137 C.ar    1  UNL1       -0.0017
      6 C          64.8192   90.9824   13.5942 C.ar    1  UNL1        0.0070
      7 C          64.0094   91.3494   12.3862 C.ar    1  UNL1       -0.0017
      8 C          63.1761   90.3094   11.6976 C.ar    1  UNL1       -0.0005
      9 C          62.3662   90.6764   10.4895 C.ar    1  UNL1       -0.0041
     10 C          61.5329   89.6365    9.8010 C.ar    1  UNL1       -0.0175
     11 C          60.7230   90.0034    8.5929 C.3     1  UNL1        0.0312
     12 C          58.7990   86.5630    7.9486 C.3     1  UNL1        0.1109
     13 N          59.6323   87.6028    8.6372 N.am    1  UNL1       -0.2992
     14 C          60.6762   87.1895    9.6319 C.2     1  UNL1        0.2456
     15 O          60.8867   85.7363    9.9381 O.2     1  UNL1       -0.2702
     16 H          59.4941   88.5567    8.4362 H       1  UNL1        0.1498
     17 C          65.6525   92.0223   14.2828 C.3     1  UNL1        0.1410
     18 O          64.7664   91.9333   15.4897 O.3     1  UNL1       -0.3771
     19 H          64.0673   91.2801   15.3301 H       1  UNL1        0.2112
     20 C          66.5387   92.1113   13.0759 C.ar    1  UNL1        0.0825
     21 C          67.9617   91.6445   12.9904 C.ar    1  UNL1        0.1157
     22 N          68.4599   91.9275   11.6041 N.ar    1  UNL1       -0.2228
     23 C          67.3448   92.5692   10.8328 C.ar    1  UNL1        0.1749
     24 N          66.1575   92.6828   11.7423 N.ar    1  UNL1       -0.3361
     25 H          65.2818   93.0653   11.5056 H       1  UNL1        0.1673
     26 C          66.4858   93.0623   14.9713 C.3     1  UNL1        0.0340
     27 C          67.0245   92.8018   16.3468 C.3     1  UNL1        0.0031
     28 C          66.7806   94.3628   14.2843 C.3     1  UNL1        0.0031
@<TRIPOS>BOND
     1    12    13    1
     2    13    14   am
     3    14    15    2
     4    14     1    1
     5     1     2   ar
     6     2     3   ar
     7     3     4   ar
     8     4     5   ar
     9     5     6   ar
    10     6    17    1
    11    17    18    1
    12    17    20    1
    13    20    21   ar
    14    21    22   ar
    15    22    23   ar
    16    23    24   ar
    17    17    26    1
    18    26    27    1
    19    26    28    1
    20     6     7   ar
    21     7     8   ar
    22     8     9   ar
    23     9    10   ar
    24    10    11    1
    25    10     1   ar
    26     8     3   ar
    27    24    20   ar
    28    13    16    1
    29    18    19    1
    30    24    25    1
@<TRIPOS>MOLECULE
*****
 28 30 0 0 0
SMALL
GASTEIGER

@<TRIPOS>ATOM
      1 C          65.8038   92.6210   13.7566 C.ar    1  UNL1        0.0494
      2 C          65.3886   92.6579   12.3157 C.ar    1  UNL1        0.0042
      3 C          64.4442   91.6227   11.7806 C.ar    1  UNL1        0.0001
      4 C          64.0290   91.6596   10.3397 C.ar    1  UNL1       -0.0002
      5 C          63.0845   90.6244    9.8046 C.ar    1  UNL1       -0.0017
      6 C          62.5553   89.5523   10.7104 C.ar    1  UNL1        0.0070
      7 C          62.9705   89.5154   12.1513 C.ar    1  UNL1       -0.0017
      8 C          63.9149   90.5506   12.6864 C.ar    1  UNL1       -0.0005
      9 C          64.3302   90.5137   14.1274 C.ar    1  UNL1       -0.0041
     10 C          65.2746   91.5489   14.6624 C.ar    1  UNL1       -0.0175
     11 C          65.6899   91.5121   16.1034 C.3     1  UNL1        0.0312
     12 C          68.7724   94.2953   15.7899 C.3     1  UNL1        0.1109
     13 N          67.8280   93.2602   15.2548 N.am    1  UNL1       -0.2992
     14 C          66.7483   93.6563   14.2917 C.2     1  UNL1        0.2456
     15 O          66.6131   95.0875   13.8638 O.2     1  UNL1       -0.2702
     16 H          67.9167   92.3207   15.5356 H       1  UNL1        0.1498
     17 C          61.6108   88.5170   10.1753 C.3     1  UNL1        0.1410
     18 O          62.7444   87.8603    9.4449 O.3     1  UNL1       -0.3771
     19 H          63.5646   88.3499    9.6136 H       1  UNL1        0.2112
     20 C          60.4772   89.1737   10.9058 C.ar    1  UNL1        0.0825
     21 C          59.6420   88.5476   11.9830 C.ar    1  UNL1        0.1157
     22 N          58.6283   89.5589   12.4303 N.ar    1  UNL1       -0.2228
     23 C          58.8371   90.8099   11.6294 C.ar    1  UNL1        0.1749
     24 N          59.9797   90.5719   10.6873 N.ar    1  UNL1       -0.3361
     25 H          60.3399   91.2197   10.0393 H       1  UNL1        0.1673
     26 C          60.6663   87.4819    9.6402 C.3     1  UNL1        0.0340
     27 C          59.5509   87.8870    8.7228 C.3     1  UNL1        0.0031
     28 C          60.8372   86.0415   10.0226 C.3     1  UNL1        0.0031
@<TRIPOS>BOND
     1    12    13    1
     2    13    14   am
     3    14    15    2
     4    14     1    1
     5     1     2   ar
     6     2     3   ar
     7     3     4   ar
     8     4     5   ar
     9     5     6   ar
    10     6    17    1
    11    17    18    1
    12    17    20    1
    13    20    21   ar
    14    21    22   ar
    15    22    23   ar
    16    23    24   ar
    17    17    26    1
    18    26    27    1
    19    26    28    1
    20     6     7   ar
    21     7     8   ar
    22     8     9   ar
    23     9    10   ar
    24    10    11    1
    25    10     1   ar
    26     8     3   ar
    27    24    20   ar
    28    13    16    1
    29    18    19    1
    30    24    25    1
@<TRIPOS>MOLECULE
*****
 28 30 0 0 0
SMALL
GASTEIGER

@<TRIPOS>ATOM
      1 C          63.0664   89.3859   11.6101 C.ar    1  UNL1        0.0494
      2 C          63.6914   88.7178   12.7987 C.ar    1  UNL1        0.0042
      3 C          63.4557   87.2576   13.0484 C.ar    1  UNL1        0.0001
      4 C          64.0807   86.5895   14.2370 C.ar    1  UNL1       -0.0002
      5 C          63.8449   85.1293   14.4866 C.ar    1  UNL1       -0.0017
      6 C          62.9841   84.3373   13.5476 C.ar    1  UNL1        0.0070
      7 C          62.3591   85.0055   12.3590 C.ar    1  UNL1       -0.0017
      8 C          62.5949   86.4656   12.1094 C.ar    1  UNL1       -0.0005
      9 C          61.9699   87.1338   10.9207 C.ar    1  UNL1       -0.0041
     10 C          62.2056   88.5939   10.6711 C.ar    1  UNL1       -0.0175
     11 C          61.5806   89.2622    9.4824 C.3     1  UNL1        0.0312
     12 C          64.9075   92.8881   11.3006 C.3     1  UNL1        0.1109
     13 N          64.6717   91.4279   11.5503 N.am    1  UNL1       -0.2992
     14 C          63.3022   90.8462   11.3604 C.2     1  UNL1        0.2456
     15 O          62.1685   91.7245   10.9210 O.2     1  UNL1       -0.2702
     16 H          65.4158   90.8514   11.8387 H       1  UNL1        0.1498
     17 C          62.7484   82.8771   13.7973 C.3     1  UNL1        0.1410
     18 O          62.2048   83.1975   15.1581 O.3     1  UNL1       -0.3771
     19 H          62.2313   84.1568   15.2992 H       1  UNL1        0.2112
     20 C          63.2919   82.5567   12.4365 C.ar    1  UNL1        0.0825
     21 C          62.6126   81.7253   11.3889 C.ar    1  UNL1        0.1157
     22 N          63.5112   81.6662   10.1892 N.ar    1  UNL1       -0.2228
     23 C          64.7459   82.4612   10.4954 C.ar    1  UNL1        0.1749
     24 N          64.6104   83.0115   11.8842 N.ar    1  UNL1       -0.3361
     25 H          65.2709   83.5726   12.3513 H       1  UNL1        0.1673
     26 C          62.5126   81.4169   14.0469 C.3     1  UNL1        0.0340
     27 C          61.1161   80.9052   14.2417 C.3     1  UNL1        0.0031
     28 C          63.6734   80.4684   14.1017 C.3     1  UNL1        0.0031
@<TRIPOS>BOND
     1    12    13    1
     2    13    14   am
     3    14    15    2
     4    14     1    1
     5     1     2   ar
     6     2     3   ar
     7     3     4   ar
     8     4     5   ar
     9     5     6   ar
    10     6    17    1
    11    17    18    1
    12    17    20    1
    13    20    21   ar
    14    21    22   ar
    15    22    23   ar
    16    23    24   ar
    17    17    26    1
    18    26    27    1
    19    26    28    1
    20     6     7   ar
    21     7     8   ar
    22     8     9   ar
    23     9    10   ar
    24    10    11    1
    25    10     1   ar
    26     8     3   ar
    27    24    20   ar
    28    13    16    1
    29    18    19    1
    30    24    25    1
