@<TRIPOS>MOLECULE
*****
 34 38 0 0 0
SMALL
GASTEIGER

@<TRIPOS>ATOM
      1 N          60.8075   89.8001    9.3802 N.3     1  UNL1       -0.2985
      2 H          60.1753   90.5961    9.2966 H       1  UNL1        0.1232
      3 C          61.7965   90.1435   10.4544 C.3     1  UNL1        0.0543
      4 C          61.7690   89.6469   11.8696 C.3     1  UNL1        0.0160
      5 C          62.9420   90.2404   12.5919 C.3     1  UNL1        0.0055
      6 C          63.6945   91.1037   11.6232 C.3     1  UNL1        0.0202
      7 C          64.2249   91.8768   10.4523 C.3     1  UNL1        0.0057
      8 C          62.9865   91.0439   10.3021 C.3     1  UNL1        0.0185
      9 C          64.7567   91.5356   12.5903 C.ar    1  UNL1       -0.0228
     10 C          65.6289   92.7131   12.2698 C.ar    1  UNL1       -0.0043
     11 C          66.6911   93.1449   13.2369 C.ar    1  UNL1        0.0035
     12 C          66.8811   92.3992   14.5245 C.ar    1  UNL1        0.0714
     13 C          66.0088   91.2217   14.8450 C.ar    1  UNL1        0.0035
     14 C          64.9466   90.7899   13.8778 C.ar    1  UNL1       -0.0043
     15 C          67.9432   92.8311   15.4916 C.3     1  UNL1        0.4186
     16 F          69.0054   93.2629   16.4587 F       1  UNL1       -0.1659
     17 F          66.8885   93.1382   16.5130 F       1  UNL1       -0.1659
     18 F          68.9980   92.5240   14.4703 F       1  UNL1       -0.1659
     19 C          59.9490   88.5774    9.5142 C.3     1  UNL1        0.0694
     20 C          59.8287   87.6161    8.3689 C.3     1  UNL1        0.0292
     21 C          60.5363   86.2946    8.4215 C.3     1  UNL1        0.0666
     22 S          62.0317   86.2484    8.5295 S.3     1  UNL1       -0.0756
     23 C          63.3800   83.9740   11.3711 C.ar    1  UNL1        0.2029
     24 N          64.0199   83.3457   10.1687 N.ar    1  UNL1       -0.1250
     25 N          63.5927   84.1212    8.9579 N.ar    1  UNL1       -0.1220
     26 C          62.6888   85.2288    9.4119 C.ar    1  UNL1        0.1933
     27 N          62.5574   85.1378   10.9034 N.ar    1  UNL1       -0.2860
     28 C          61.7457   86.0504   11.7742 C.3     1  UNL1        0.1341
     29 C          62.7240   80.9872   12.5104 C.3     1  UNL1        0.0556
     30 C          63.2340   82.1456   13.3154 C.ar    1  UNL1        0.1001
     31 N          63.5320   82.1345   14.7855 N.ar    1  UNL1       -0.2085
     32 C          64.0177   83.5004   15.1703 C.ar    1  UNL1        0.2849
     33 O          64.0199   84.3557   13.9381 O.2     1  UNL1       -0.4283
     34 C          63.5356   83.5185   12.7917 C.ar    1  UNL1        0.1964
@<TRIPOS>BOND
     1    29    30    1
     2    30    31   ar
     3    31    32   ar
     4    32    33   ar
     5    33    34   ar
     6    34    23    1
     7    23    24   ar
     8    24    25   ar
     9    25    26   ar
    10    26    22    1
    11    22    21    1
    12    21    20    1
    13    20    19    1
    14    19     1    1
    15     3     1    1
    16     3     4    1
    17     4     5    1
    18     5     6    1
    19     6     9    1
    20     9    10   ar
    21    10    11   ar
    22    11    12   ar
    23    12    15    1
    24    15    16    1
    25    15    17    1
    26    15    18    1
    27    12    13   ar
    28    13    14   ar
    29     6     7    1
    30     7     8    1
    31    26    27   ar
    32    27    28    1
    33    34    30   ar
    34    27    23   ar
    35     8     3    1
    36     8     6    1
    37    14     9   ar
    38     1     2    1
@<TRIPOS>MOLECULE
*****
 34 38 0 0 0
SMALL
GASTEIGER

@<TRIPOS>ATOM
      1 N          63.3699   87.7449   17.2939 N.3     1  UNL1       -0.2985
      2 H          62.7514   87.6997   18.1036 H       1  UNL1        0.1232
      3 C          63.0973   86.5201   16.4719 C.3     1  UNL1        0.0543
      4 C          61.8621   85.6715   16.5369 C.3     1  UNL1        0.0160
      5 C          62.0135   84.5559   15.5458 C.3     1  UNL1        0.0055
      6 C          63.3423   84.7149   14.8683 C.3     1  UNL1        0.0202
      7 C          64.6987   85.1251   14.3764 C.3     1  UNL1        0.0057
      8 C          64.0121   85.9288   15.4406 C.3     1  UNL1        0.0185
      9 C          63.2102   83.5134   13.9800 C.ar    1  UNL1       -0.0228
     10 C          62.3099   82.3816   14.3782 C.ar    1  UNL1       -0.0043
     11 C          62.1777   81.1802   13.4899 C.ar    1  UNL1        0.0035
     12 C          62.9459   81.1105   12.2034 C.ar    1  UNL1        0.0714
     13 C          63.8462   82.2423   11.8051 C.ar    1  UNL1        0.0035
     14 C          63.9783   83.4438   12.6935 C.ar    1  UNL1       -0.0043
     15 C          62.8137   79.9091   11.3151 C.3     1  UNL1        0.4186
     16 F          62.6815   78.7076   10.4268 F       1  UNL1       -0.1659
     17 F          63.1967   80.7438   10.1291 F       1  UNL1       -0.1659
     18 F          62.4307   79.0744   12.5011 F       1  UNL1       -0.1659
     19 C          63.1949   89.1071   16.6908 C.3     1  UNL1        0.0694
     20 C          63.9365   89.4745   15.4397 C.3     1  UNL1        0.0292
     21 C          63.3240   90.4282   14.4574 C.3     1  UNL1        0.0666
     22 S          63.5521   90.2397   12.9869 S.3     1  UNL1       -0.0756
     23 C          61.8619   87.5772   10.7243 C.ar    1  UNL1        0.2029
     24 N          62.5397   86.7061   11.7401 N.ar    1  UNL1       -0.1250
     25 N          63.2553   87.5975   12.7113 N.ar    1  UNL1       -0.1220
     26 C          63.0198   89.0195   12.2957 C.ar    1  UNL1        0.1933
     27 N          62.1586   89.0069   11.0677 N.ar    1  UNL1       -0.2860
     28 C          61.6785   90.2123   10.3152 C.3     1  UNL1        0.1341
     29 C          62.8214   85.4916    8.4050 C.3     1  UNL1        0.0556
     30 C          61.4739   86.1433    8.5020 C.ar    1  UNL1        0.1001
     31 N          60.3308   85.9508    7.5500 N.ar    1  UNL1       -0.2085
     32 C          59.1833   86.7904    8.0277 C.ar    1  UNL1        0.2849
     33 O          59.6172   87.5019    9.2749 O.2     1  UNL1       -0.4283
     34 C          61.0328   87.1019    9.5681 C.ar    1  UNL1        0.1964
@<TRIPOS>BOND
     1    29    30    1
     2    30    31   ar
     3    31    32   ar
     4    32    33   ar
     5    33    34   ar
     6    34    23    1
     7    23    24   ar
     8    24    25   ar
     9    25    26   ar
    10    26    22    1
    11    22    21    1
    12    21    20    1
    13    20    19    1
    14    19     1    1
    15     3     1    1
    16     3     4    1
    17     4     5    1
    18     5     6    1
    19     6     9    1
    20     9    10   ar
    21    10    11   ar
    22    11    12   ar
    23    12    15    1
    24    15    16    1
    25    15    17    1
    26    15    18    1
    27    12    13   ar
    28    13    14   ar
    29     6     7    1
    30     7     8    1
    31    26    27   ar
    32    27    28    1
    33    34    30   ar
    34    27    23   ar
    35     8     3    1
    36     8     6    1
    37    14     9   ar
    38     1     2    1
@<TRIPOS>MOLECULE
*****
 34 38 0 0 0
SMALL
GASTEIGER

@<TRIPOS>ATOM
      1 N          63.4372   87.8693   17.2494 N.3     1  UNL1       -0.2985
      2 H          63.0972   87.6920   18.1946 H       1  UNL1        0.1232
      3 C          63.1923   86.6181   16.4593 C.3     1  UNL1        0.0543
      4 C          62.1629   85.5704   16.7637 C.3     1  UNL1        0.0160
      5 C          62.2683   84.4996   15.7185 C.3     1  UNL1        0.0055
      6 C          63.3628   84.8855   14.7682 C.3     1  UNL1        0.0202
      7 C          64.4842   85.5232   14.0029 C.3     1  UNL1        0.0057
      8 C          63.9339   86.1948   15.2260 C.3     1  UNL1        0.0185
      9 C          63.2337   83.6815   13.8830 C.ar    1  UNL1       -0.0228
     10 C          62.5071   82.4643   14.3736 C.ar    1  UNL1       -0.0043
     11 C          62.3780   81.2603   13.4885 C.ar    1  UNL1        0.0035
     12 C          62.9755   81.2733   12.1126 C.ar    1  UNL1        0.0714
     13 C          63.7021   82.4904   11.6220 C.ar    1  UNL1        0.0035
     14 C          63.8312   83.6945   12.5072 C.ar    1  UNL1       -0.0043
     15 C          62.8464   80.0692   11.2274 C.3     1  UNL1        0.4186
     16 F          62.7173   78.8651   10.3423 F       1  UNL1       -0.1659
     17 F          63.2583   80.8946   10.0446 F       1  UNL1       -0.1659
     18 F          62.4345   79.2439   12.4102 F       1  UNL1       -0.1659
     19 C          62.8287   89.1670   16.8068 C.3     1  UNL1        0.0694
     20 C          63.6422   90.1439   16.0106 C.3     1  UNL1        0.0292
     21 C          64.1790   89.7524   14.6658 C.3     1  UNL1        0.0666
     22 S          63.8992   90.6107   13.4678 S.3     1  UNL1       -0.0756
     23 C          66.0866   93.3467   11.7960 C.ar    1  UNL1        0.2029
     24 N          66.5575   93.4278   13.2178 N.ar    1  UNL1       -0.1250
     25 N          65.7955   92.4128   14.0171 N.ar    1  UNL1       -0.1220
     26 C          64.8535   91.7043   13.0893 C.ar    1  UNL1        0.1933
     27 N          65.0334   92.2815   11.7165 N.ar    1  UNL1       -0.2860
     28 C          64.2906   91.8664   10.4813 C.3     1  UNL1        0.1341
     29 C          68.2589   92.4242    9.5422 C.3     1  UNL1        0.0556
     30 C          67.5803   93.7598    9.6181 C.ar    1  UNL1        0.1001
     31 N          67.7811   94.9059    8.6714 N.ar    1  UNL1       -0.2085
     32 C          66.9067   96.0381    9.1223 C.ar    1  UNL1        0.2849
     33 O          66.1655   95.5919   10.3476 O.2     1  UNL1       -0.4283
     34 C          66.5818   94.1838   10.6541 C.ar    1  UNL1        0.1964
@<TRIPOS>BOND
     1    29    30    1
     2    30    31   ar
     3    31    32   ar
     4    32    33   ar
     5    33    34   ar
     6    34    23    1
     7    23    24   ar
     8    24    25   ar
     9    25    26   ar
    10    26    22    1
    11    22    21    1
    12    21    20    1
    13    20    19    1
    14    19     1    1
    15     3     1    1
    16     3     4    1
    17     4     5    1
    18     5     6    1
    19     6     9    1
    20     9    10   ar
    21    10    11   ar
    22    11    12   ar
    23    12    15    1
    24    15    16    1
    25    15    17    1
    26    15    18    1
    27    12    13   ar
    28    13    14   ar
    29     6     7    1
    30     7     8    1
    31    26    27   ar
    32    27    28    1
    33    34    30   ar
    34    27    23   ar
    35     8     3    1
    36     8     6    1
    37    14     9   ar
    38     1     2    1
@<TRIPOS>MOLECULE
*****
 34 38 0 0 0
SMALL
GASTEIGER

@<TRIPOS>ATOM
      1 N          63.9309   88.4440   14.2505 N.3     1  UNL1       -0.2985
      2 H          64.7720   88.8299   13.8216 H       1  UNL1        0.1232
      3 C          63.8841   86.9909   13.8810 C.3     1  UNL1        0.0543
      4 C          64.5759   85.8743   14.6052 C.3     1  UNL1        0.0160
      5 C          64.2566   84.5927   13.8942 C.3     1  UNL1        0.0055
      6 C          63.3674   84.9173   12.7306 C.3     1  UNL1        0.0202
      7 C          62.5073   85.5369   11.6693 C.3     1  UNL1        0.0057
      8 C          63.1371   86.3995   12.7224 C.3     1  UNL1        0.0185
      9 C          63.2278   83.5062   12.2415 C.ar    1  UNL1       -0.0228
     10 C          62.5336   82.4831   13.0909 C.ar    1  UNL1       -0.0043
     11 C          62.3941   81.0720   12.6017 C.ar    1  UNL1        0.0035
     12 C          62.9488   80.6839   11.2632 C.ar    1  UNL1        0.0714
     13 C          63.6431   81.7069   10.4138 C.ar    1  UNL1        0.0035
     14 C          63.7826   83.1181   10.9029 C.ar    1  UNL1       -0.0043
     15 C          62.8093   79.2727   10.7740 C.3     1  UNL1        0.4186
     16 F          62.6698   77.8616   10.2849 F       1  UNL1       -0.1659
     17 F          63.0332   79.7387    9.3659 F       1  UNL1       -0.1659
     18 F          62.5853   78.8068   12.1821 F       1  UNL1       -0.1659
     19 C          63.9555   88.8503   15.6942 C.3     1  UNL1        0.0694
     20 C          63.2837   90.1194   16.1278 C.3     1  UNL1        0.0292
     21 C          64.0222   91.4228   16.0517 C.3     1  UNL1        0.0666
     22 S          65.3020   91.5153   15.2748 S.3     1  UNL1       -0.0756
     23 C          65.6636   93.0333   11.7209 C.ar    1  UNL1        0.2029
     24 N          64.7860   91.8492   11.4423 N.ar    1  UNL1       -0.1250
     25 N          64.5436   91.1364   12.7397 N.ar    1  UNL1       -0.1220
     26 C          65.2716   91.8800   13.8201 C.ar    1  UNL1        0.1933
     27 N          65.9638   93.0523   13.1904 N.ar    1  UNL1       -0.2860
     28 C          66.8079   94.0658   13.9048 C.3     1  UNL1        0.1341
     29 C          68.0369   92.5289    9.5384 C.3     1  UNL1        0.0556
     30 C          67.2458   93.7924    9.7045 C.ar    1  UNL1        0.1001
     31 N          67.4066   95.0461    8.8966 N.ar    1  UNL1       -0.2085
     32 C          66.4153   96.0526    9.4005 C.ar    1  UNL1        0.2849
     33 O          65.6417   95.4211   10.5198 O.2     1  UNL1       -0.4283
     34 C          66.1549   94.0243   10.7077 C.ar    1  UNL1        0.1964
@<TRIPOS>BOND
     1    29    30    1
     2    30    31   ar
     3    31    32   ar
     4    32    33   ar
     5    33    34   ar
     6    34    23    1
     7    23    24   ar
     8    24    25   ar
     9    25    26   ar
    10    26    22    1
    11    22    21    1
    12    21    20    1
    13    20    19    1
    14    19     1    1
    15     3     1    1
    16     3     4    1
    17     4     5    1
    18     5     6    1
    19     6     9    1
    20     9    10   ar
    21    10    11   ar
    22    11    12   ar
    23    12    15    1
    24    15    16    1
    25    15    17    1
    26    15    18    1
    27    12    13   ar
    28    13    14   ar
    29     6     7    1
    30     7     8    1
    31    26    27   ar
    32    27    28    1
    33    34    30   ar
    34    27    23   ar
    35     8     3    1
    36     8     6    1
    37    14     9   ar
    38     1     2    1
@<TRIPOS>MOLECULE
*****
 34 38 0 0 0
SMALL
GASTEIGER

@<TRIPOS>ATOM
      1 N          59.1518   89.8779    7.3419 N.3     1  UNL1       -0.2985
      2 H          58.1910   89.9059    7.6831 H       1  UNL1        0.1232
      3 C          59.7857   88.6536    7.9328 C.3     1  UNL1        0.0543
      4 C          59.4148   87.2330    7.6254 C.3     1  UNL1        0.0160
      5 C          60.3017   86.3364    8.4375 C.3     1  UNL1        0.0055
      6 C          61.2207   87.2027    9.2467 C.3     1  UNL1        0.0202
      7 C          61.9878   88.3047    9.9154 C.3     1  UNL1        0.0057
      8 C          60.9018   88.6349    8.9348 C.3     1  UNL1        0.0185
      9 C          61.9472   86.0757    9.9189 C.ar    1  UNL1       -0.0228
     10 C          61.7833   85.8511   11.3930 C.ar    1  UNL1       -0.0043
     11 C          62.5098   84.7240   12.0652 C.ar    1  UNL1        0.0035
     12 C          63.4003   83.8215   11.2634 C.ar    1  UNL1        0.0714
     13 C          63.5642   84.0462    9.7894 C.ar    1  UNL1        0.0035
     14 C          62.8376   85.1733    9.1172 C.ar    1  UNL1       -0.0043
     15 C          64.1268   82.6945   11.9357 C.3     1  UNL1        0.4186
     16 F          64.8533   81.5674   12.6079 F       1  UNL1       -0.1659
     17 F          64.7491   83.6668   12.8933 F       1  UNL1       -0.1659
     18 F          63.5045   81.7221   10.9780 F       1  UNL1       -0.1659
     19 C          59.0875   90.0447    5.8526 C.3     1  UNL1        0.0694
     20 C          58.2766   91.1572    5.2568 C.3     1  UNL1        0.0292
     21 C          58.9623   92.2972    4.5639 C.3     1  UNL1        0.0666
     22 S          60.2211   92.0536    3.7854 S.3     1  UNL1       -0.0756
     23 C          62.1105   94.3062    1.2514 C.ar    1  UNL1        0.2029
     24 N          60.7787   94.9937    1.3135 N.ar    1  UNL1       -0.1250
     25 N          59.9089   94.2335    2.2703 N.ar    1  UNL1       -0.1220
     26 C          60.7031   93.0762    2.7996 C.ar    1  UNL1        0.1933
     27 N          62.0637   93.1212    2.1698 N.ar    1  UNL1       -0.2860
     28 C          63.1813   92.1513    2.4154 C.3     1  UNL1        0.1341
     29 C          64.9546   95.4431    2.3773 C.3     1  UNL1        0.0556
     30 C          64.5904   95.2521    0.9348 C.ar    1  UNL1        0.1001
     31 N          65.4696   95.5501   -0.2435 N.ar    1  UNL1       -0.2085
     32 C          64.7056   95.2116   -1.4892 C.ar    1  UNL1        0.2849
     33 O          63.3544   94.7045   -1.0808 O.2     1  UNL1       -0.4283
     34 C          63.2831   94.7295    0.4173 C.ar    1  UNL1        0.1964
@<TRIPOS>BOND
     1    29    30    1
     2    30    31   ar
     3    31    32   ar
     4    32    33   ar
     5    33    34   ar
     6    34    23    1
     7    23    24   ar
     8    24    25   ar
     9    25    26   ar
    10    26    22    1
    11    22    21    1
    12    21    20    1
    13    20    19    1
    14    19     1    1
    15     3     1    1
    16     3     4    1
    17     4     5    1
    18     5     6    1
    19     6     9    1
    20     9    10   ar
    21    10    11   ar
    22    11    12   ar
    23    12    15    1
    24    15    16    1
    25    15    17    1
    26    15    18    1
    27    12    13   ar
    28    13    14   ar
    29     6     7    1
    30     7     8    1
    31    26    27   ar
    32    27    28    1
    33    34    30   ar
    34    27    23   ar
    35     8     3    1
    36     8     6    1
    37    14     9   ar
    38     1     2    1
@<TRIPOS>MOLECULE
*****
 34 38 0 0 0
SMALL
GASTEIGER

@<TRIPOS>ATOM
      1 N          63.5170   91.4667   13.9954 N.3     1  UNL1       -0.2985
      2 H          64.0294   92.1769   13.4724 H       1  UNL1        0.1232
      3 C          63.2228   90.3511   13.0367 C.3     1  UNL1        0.0543
      4 C          63.6920   88.9321   13.1645 C.3     1  UNL1        0.0160
      5 C          63.1670   88.1628   11.9887 C.3     1  UNL1        0.0055
      6 C          62.3733   89.1062   11.1343 C.3     1  UNL1        0.0202
      7 C          61.6582   90.2610   10.4980 C.3     1  UNL1        0.0057
      8 C          62.4078   90.4587   11.7820 C.3     1  UNL1        0.0185
      9 C          61.9978   88.0954   10.0916 C.ar    1  UNL1       -0.0228
     10 C          62.9647   87.0124    9.7144 C.ar    1  UNL1       -0.0043
     11 C          62.5892   86.0016    8.6717 C.ar    1  UNL1        0.0035
     12 C          61.2468   86.0737    8.0062 C.ar    1  UNL1        0.0714
     13 C          60.2799   87.1567    8.3835 C.ar    1  UNL1        0.0035
     14 C          60.6554   88.1676    9.4262 C.ar    1  UNL1       -0.0043
     15 C          60.8713   85.0629    6.9635 C.3     1  UNL1        0.4186
     16 F          60.4958   84.0521    5.9208 F       1  UNL1       -0.1659
     17 F          59.4232   85.4049    7.1535 F       1  UNL1       -0.1659
     18 F          62.3193   84.7210    6.7735 F       1  UNL1       -0.1659
     19 C          64.3043   91.1955   15.2430 C.3     1  UNL1        0.0694
     20 C          63.6150   90.6617   16.4637 C.3     1  UNL1        0.0292
     21 C          62.8217   89.3913   16.3819 C.3     1  UNL1        0.0666
     22 S          63.3021   88.1602   17.0916 S.3     1  UNL1       -0.0756
     23 C          62.8077   84.6775   15.4510 C.ar    1  UNL1        0.2029
     24 N          61.5946   84.7588   16.3295 N.ar    1  UNL1       -0.1250
     25 N          61.6322   86.0733   17.0511 N.ar    1  UNL1       -0.1220
     26 C          62.8685   86.8045   16.6184 C.ar    1  UNL1        0.1933
     27 N          63.5949   85.9418   15.6295 N.ar    1  UNL1       -0.2860
     28 C          64.8826   86.2834   14.9401 C.3     1  UNL1        0.1341
     29 C          62.5781   84.6484   12.1958 C.3     1  UNL1        0.0556
     30 C          63.0643   83.5195   13.0555 C.ar    1  UNL1        0.1001
     31 N          63.5304   82.1789   12.5699 N.ar    1  UNL1       -0.2085
     32 C          63.9240   81.3639   13.7660 C.ar    1  UNL1        0.2849
     33 O          63.7011   82.2006   14.9908 O.2     1  UNL1       -0.4283
     34 C          63.1698   83.5329   14.5517 C.ar    1  UNL1        0.1964
@<TRIPOS>BOND
     1    29    30    1
     2    30    31   ar
     3    31    32   ar
     4    32    33   ar
     5    33    34   ar
     6    34    23    1
     7    23    24   ar
     8    24    25   ar
     9    25    26   ar
    10    26    22    1
    11    22    21    1
    12    21    20    1
    13    20    19    1
    14    19     1    1
    15     3     1    1
    16     3     4    1
    17     4     5    1
    18     5     6    1
    19     6     9    1
    20     9    10   ar
    21    10    11   ar
    22    11    12   ar
    23    12    15    1
    24    15    16    1
    25    15    17    1
    26    15    18    1
    27    12    13   ar
    28    13    14   ar
    29     6     7    1
    30     7     8    1
    31    26    27   ar
    32    27    28    1
    33    34    30   ar
    34    27    23   ar
    35     8     3    1
    36     8     6    1
    37    14     9   ar
    38     1     2    1
@<TRIPOS>MOLECULE
*****
 34 38 0 0 0
SMALL
GASTEIGER

@<TRIPOS>ATOM
      1 N          62.4416   90.1198   13.5428 N.3     1  UNL1       -0.2985
      2 H          62.1066   91.0707   13.3882 H       1  UNL1        0.1232
      3 C          62.2959   89.3920   12.2393 C.3     1  UNL1        0.0543
      4 C          62.0627   90.0229   10.8986 C.3     1  UNL1        0.0160
      5 C          61.9805   88.9263    9.8784 C.3     1  UNL1        0.0055
      6 C          62.1629   87.6177   10.5887 C.3     1  UNL1        0.0202
      7 C          62.3715   86.4892   11.5544 C.3     1  UNL1        0.0057
      8 C          62.3578   87.9056   12.0478 C.3     1  UNL1        0.0185
      9 C          62.0370   86.7571    9.3666 C.ar    1  UNL1       -0.0228
     10 C          63.1933   85.9107    8.9231 C.ar    1  UNL1       -0.0043
     11 C          63.0674   85.0500    7.7010 C.ar    1  UNL1        0.0035
     12 C          61.7853   85.0359    6.9223 C.ar    1  UNL1        0.0714
     13 C          60.6291   85.8824    7.3659 C.ar    1  UNL1        0.0035
     14 C          60.7550   86.7430    8.5880 C.ar    1  UNL1       -0.0043
     15 C          61.6595   84.1753    5.7003 C.3     1  UNL1        0.4186
     16 F          61.5337   83.3147    4.4782 F       1  UNL1       -0.1659
     17 F          63.1060   84.4141    5.3832 F       1  UNL1       -0.1659
     18 F          60.2130   83.9365    6.0174 F       1  UNL1       -0.1659
     19 C          63.7895   90.2356   14.1906 C.3     1  UNL1        0.0694
     20 C          64.2411   89.1964   15.1735 C.3     1  UNL1        0.0292
     21 C          63.2282   88.3882   15.9290 C.3     1  UNL1        0.0666
     22 S          63.6107   87.0585   16.5082 S.3     1  UNL1       -0.0756
     23 C          63.9512   83.8829   14.3024 C.ar    1  UNL1        0.2029
     24 N          65.2974   84.5156   14.1094 N.ar    1  UNL1       -0.1250
     25 N          65.3337   85.7822   14.9122 N.ar    1  UNL1       -0.1220
     26 C          64.0099   85.9323   15.6014 C.ar    1  UNL1        0.1933
     27 N          63.1554   84.7585   15.2246 N.ar    1  UNL1       -0.2860
     28 C          61.7517   84.5048   15.6883 C.3     1  UNL1        0.1341
     29 C          64.1062   83.1151   11.1345 C.3     1  UNL1        0.0556
     30 C          63.5542   82.2470   12.2261 C.ar    1  UNL1        0.1001
     31 N          62.9764   80.8735   12.0533 N.ar    1  UNL1       -0.2085
     32 C          62.5481   80.3777   13.4025 C.ar    1  UNL1        0.2849
     33 O          62.8611   81.4446   14.4093 O.2     1  UNL1       -0.4283
     34 C          63.4829   82.6000   13.6823 C.ar    1  UNL1        0.1964
@<TRIPOS>BOND
     1    29    30    1
     2    30    31   ar
     3    31    32   ar
     4    32    33   ar
     5    33    34   ar
     6    34    23    1
     7    23    24   ar
     8    24    25   ar
     9    25    26   ar
    10    26    22    1
    11    22    21    1
    12    21    20    1
    13    20    19    1
    14    19     1    1
    15     3     1    1
    16     3     4    1
    17     4     5    1
    18     5     6    1
    19     6     9    1
    20     9    10   ar
    21    10    11   ar
    22    11    12   ar
    23    12    15    1
    24    15    16    1
    25    15    17    1
    26    15    18    1
    27    12    13   ar
    28    13    14   ar
    29     6     7    1
    30     7     8    1
    31    26    27   ar
    32    27    28    1
    33    34    30   ar
    34    27    23   ar
    35     8     3    1
    36     8     6    1
    37    14     9   ar
    38     1     2    1
@<TRIPOS>MOLECULE
*****
 34 38 0 0 0
SMALL
GASTEIGER

@<TRIPOS>ATOM
      1 N          58.6041   89.3467    6.5980 N.3     1  UNL1       -0.2985
      2 H          58.1881   88.6697    5.9584 H       1  UNL1        0.1232
      3 C          59.5092   88.5775    7.5141 C.3     1  UNL1        0.0543
      4 C          60.2473   89.1337    8.6955 C.3     1  UNL1        0.0160
      5 C          61.0294   88.0171    9.3211 C.3     1  UNL1        0.0055
      6 C          60.7747   86.7707    8.5263 C.3     1  UNL1        0.0202
      7 C          60.3373   85.7116    7.5584 C.3     1  UNL1        0.0057
      8 C          59.8351   87.1171    7.4094 C.3     1  UNL1        0.0185
      9 C          61.6482   85.8755    9.3542 C.ar    1  UNL1       -0.0228
     10 C          62.6985   85.0326    8.6935 C.ar    1  UNL1       -0.0043
     11 C          63.5720   84.1374    9.5215 C.ar    1  UNL1        0.0035
     12 C          63.3953   84.0850   11.0102 C.ar    1  UNL1        0.0714
     13 C          62.3449   84.9278   11.6708 C.ar    1  UNL1        0.0035
     14 C          61.4714   85.8231   10.8428 C.ar    1  UNL1       -0.0043
     15 C          64.2688   83.1898   11.8381 C.3     1  UNL1        0.4186
     16 F          65.1423   82.2945   12.6660 F       1  UNL1       -0.1659
     17 F          64.9523   82.7059   10.5937 F       1  UNL1       -0.1659
     18 F          63.5852   83.6736   13.0825 F       1  UNL1       -0.1659
     19 C          59.1581   90.4560    5.7540 C.3     1  UNL1        0.0694
     20 C          58.2419   91.2687    4.8877 C.3     1  UNL1        0.0292
     21 C          58.7814   92.4327    4.1105 C.3     1  UNL1        0.0666
     22 S          60.2221   92.4530    3.6935 S.3     1  UNL1       -0.0756
     23 C          62.0320   94.5740    0.9934 C.ar    1  UNL1        0.2029
     24 N          60.8191   95.4159    1.2583 N.ar    1  UNL1       -0.1250
     25 N          59.9935   94.7238    2.3020 N.ar    1  UNL1       -0.1220
     26 C          60.6961   93.4542    2.6822 C.ar    1  UNL1        0.1933
     27 N          61.9560   93.3617    1.8734 N.ar    1  UNL1       -0.2860
     28 C          62.9631   92.2517    1.9340 C.3     1  UNL1        0.1341
     29 C          62.3734   93.2966   -1.9901 C.3     1  UNL1        0.0556
     30 C          63.2854   94.3021   -1.3519 C.ar    1  UNL1        0.1001
     31 N          64.5144   94.8970   -1.9729 N.ar    1  UNL1       -0.2085
     32 C          65.1170   95.8518   -0.9854 C.ar    1  UNL1        0.2849
     33 O          64.2604   95.8470    0.2459 O.2     1  UNL1       -0.4283
     34 C          63.1284   94.8893    0.0195 C.ar    1  UNL1        0.1964
@<TRIPOS>BOND
     1    29    30    1
     2    30    31   ar
     3    31    32   ar
     4    32    33   ar
     5    33    34   ar
     6    34    23    1
     7    23    24   ar
     8    24    25   ar
     9    25    26   ar
    10    26    22    1
    11    22    21    1
    12    21    20    1
    13    20    19    1
    14    19     1    1
    15     3     1    1
    16     3     4    1
    17     4     5    1
    18     5     6    1
    19     6     9    1
    20     9    10   ar
    21    10    11   ar
    22    11    12   ar
    23    12    15    1
    24    15    16    1
    25    15    17    1
    26    15    18    1
    27    12    13   ar
    28    13    14   ar
    29     6     7    1
    30     7     8    1
    31    26    27   ar
    32    27    28    1
    33    34    30   ar
    34    27    23   ar
    35     8     3    1
    36     8     6    1
    37    14     9   ar
    38     1     2    1
@<TRIPOS>MOLECULE
*****
 34 38 0 0 0
SMALL
GASTEIGER

@<TRIPOS>ATOM
      1 N          64.1604   87.5110   15.3282 N.3     1  UNL1       -0.2985
      2 H          63.2904   87.7368   15.8104 H       1  UNL1        0.1232
      3 C          64.0091   86.1185   14.7914 C.3     1  UNL1        0.0543
      4 C          64.3140   84.8502   15.5319 C.3     1  UNL1        0.0160
      5 C          64.0197   83.6978   14.6179 C.3     1  UNL1        0.0055
      6 C          63.5330   84.2539   13.3126 C.3     1  UNL1        0.0202
      7 C          63.0884   85.0874   12.1474 C.3     1  UNL1        0.0057
      8 C          63.5265   85.7500   13.4198 C.3     1  UNL1        0.0185
      9 C          63.3317   82.9272   12.6422 C.ar    1  UNL1       -0.0228
     10 C          62.8975   81.7383   13.4472 C.ar    1  UNL1       -0.0043
     11 C          62.6962   80.4117   12.7769 C.ar    1  UNL1        0.0035
     12 C          62.9290   80.2739   11.3014 C.ar    1  UNL1        0.0714
     13 C          63.3632   81.4628   10.4964 C.ar    1  UNL1        0.0035
     14 C          63.5645   82.7895   11.1668 C.ar    1  UNL1       -0.0043
     15 C          62.7277   78.9472   10.6310 C.3     1  UNL1        0.4186
     16 F          62.5264   77.6205    9.9606 F       1  UNL1       -0.1659
     17 F          62.5103   78.3043   11.9687 F       1  UNL1       -0.1659
     18 F          62.9451   79.5901    9.2934 F       1  UNL1       -0.1659
     19 C          64.4450   88.6486   14.3929 C.3     1  UNL1        0.0694
     20 C          64.6231   90.0368   14.9326 C.3     1  UNL1        0.0292
     21 C          63.9109   91.1891   14.2884 C.3     1  UNL1        0.0666
     22 S          63.6758   91.1916   12.8069 S.3     1  UNL1       -0.0756
     23 C          61.0789   89.2944   10.6339 C.ar    1  UNL1        0.2029
     24 N          60.6107   88.9455   12.0156 N.ar    1  UNL1       -0.1250
     25 N          61.5265   89.6138   12.9978 N.ar    1  UNL1       -0.1220
     26 C          62.5607   90.3756   12.2231 C.ar    1  UNL1        0.1933
     27 N          62.2841   90.1782   10.7621 N.ar    1  UNL1       -0.2860
     28 C          63.0739   90.7621    9.6285 C.3     1  UNL1        0.1341
     29 C          60.9352   86.2182    9.5539 C.3     1  UNL1        0.0556
     30 C          60.3859   87.4253    8.8531 C.ar    1  UNL1        0.1001
     31 N          59.6741   87.4304    7.5327 N.ar    1  UNL1       -0.2085
     32 C          59.3002   88.8474    7.2131 C.ar    1  UNL1        0.2849
     33 O          59.7810   89.7181    8.3359 O.2     1  UNL1       -0.4283
     34 C          60.4519   88.8392    9.3495 C.ar    1  UNL1        0.1964
@<TRIPOS>BOND
     1    29    30    1
     2    30    31   ar
     3    31    32   ar
     4    32    33   ar
     5    33    34   ar
     6    34    23    1
     7    23    24   ar
     8    24    25   ar
     9    25    26   ar
    10    26    22    1
    11    22    21    1
    12    21    20    1
    13    20    19    1
    14    19     1    1
    15     3     1    1
    16     3     4    1
    17     4     5    1
    18     5     6    1
    19     6     9    1
    20     9    10   ar
    21    10    11   ar
    22    11    12   ar
    23    12    15    1
    24    15    16    1
    25    15    17    1
    26    15    18    1
    27    12    13   ar
    28    13    14   ar
    29     6     7    1
    30     7     8    1
    31    26    27   ar
    32    27    28    1
    33    34    30   ar
    34    27    23   ar
    35     8     3    1
    36     8     6    1
    37    14     9   ar
    38     1     2    1
