@<TRIPOS>MOLECULE
*****
 30 34 0 0 0
SMALL
GASTEIGER

@<TRIPOS>ATOM
      1 N          64.0582   90.7246   14.6147 N.ar    1  UNL1       -0.3106
      2 C          63.7562   90.7058   13.1455 C.ar    1  UNL1        0.1215
      3 N          64.6822   91.6731   12.4696 N.ar    1  UNL1       -0.2309
      4 C          65.5564   92.2897   13.5210 C.ar    1  UNL1        0.0983
      5 C          66.6538   93.3093   13.4425 C.ar    1  UNL1        0.0206
      6 C          67.3655   93.7426   14.6898 C.ar    1  UNL1        0.0016
      7 C          66.9799   93.1564   16.0155 C.ar    1  UNL1        0.0016
      8 C          65.8825   92.1368   16.0940 C.ar    1  UNL1        0.0188
      9 C          65.1708   91.7035   14.8468 C.ar    1  UNL1        0.0789
     10 C          62.7117   89.8669   12.4707 C.3     1  UNL1        0.0729
     11 C          61.2977   90.3592   12.3803 C.3     1  UNL1        0.0103
     12 C          60.2532   89.5203   11.7056 C.3     1  UNL1        0.0178
     13 C          60.6227   88.1892   11.1212 C.3     1  UNL1        0.0721
     14 N          62.0367   87.6970   11.2116 N.3     1  UNL1       -0.2734
     15 C          63.0812   88.5358   11.8863 C.3     1  UNL1        0.0795
     16 C          62.4063   86.3658   10.6271 C.3     1  UNL1        0.0625
     17 C          62.6447   85.1910   11.5288 C.3     1  UNL1        0.0481
     18 C          63.0142   83.8599   10.9445 C.3     1  UNL1        0.1435
     19 O          63.1453   83.7035    9.4584 O.3     1  UNL1       -0.3537
     20 C          62.9069   84.8782    8.5567 C.3     1  UNL1        0.1435
     21 C          62.5374   86.2094    9.1411 C.3     1  UNL1        0.0481
     22 C          63.3686   89.9078   15.6670 C.3     1  UNL1        0.1339
     23 C          63.9834   85.4527   15.8195 C.ar    1  UNL1        0.1387
     24 C          64.6119   86.2594   14.7221 C.ar    1  UNL1        0.0366
     25 C          64.4070   87.7444   14.6713 C.ar    1  UNL1        0.0007
     26 C          63.5735   88.4228   15.7179 C.ar    1  UNL1        0.0006
     27 C          62.9450   87.6161   16.8152 C.ar    1  UNL1        0.0007
     28 C          63.1499   86.1310   16.8659 C.ar    1  UNL1        0.0366
     29 C          63.8582   83.1236   14.6748 C.3     1  UNL1        0.2525
     30 O          64.1883   83.9676   15.8702 O.3     1  UNL1       -0.4714
@<TRIPOS>BOND
     1    29    30    1
     2    30    23    1
     3    23    24   ar
     4    24    25   ar
     5    25    26   ar
     6    26    22    1
     7    22     1    1
     8     1     2   ar
     9     2    10    1
    10    10    11    1
    11    11    12    1
    12    12    13    1
    13    13    14    1
    14    14    16    1
    15    16    17    1
    16    17    18    1
    17    18    19    1
    18    19    20    1
    19    20    21    1
    20    14    15    1
    21     2     3   ar
    22     3     4   ar
    23     4     5   ar
    24     5     6   ar
    25     6     7   ar
    26     7     8   ar
    27     8     9   ar
    28    26    27   ar
    29    27    28   ar
    30    28    23   ar
    31     9     1   ar
    32    15    10    1
    33     9     4   ar
    34    21    16    1
@<TRIPOS>MOLECULE
*****
 30 34 0 0 0
SMALL
GASTEIGER

@<TRIPOS>ATOM
      1 N          63.6814   90.5581   13.0031 N.ar    1  UNL1       -0.3106
      2 C          64.4521   89.9236   14.1227 C.ar    1  UNL1        0.1215
      3 N          65.7986   90.5812   14.1893 N.ar    1  UNL1       -0.2309
      4 C          65.8602   91.6220   13.1109 C.ar    1  UNL1        0.0983
      5 C          66.9387   92.5808   12.7018 C.ar    1  UNL1        0.0206
      6 C          66.7086   93.5254   11.5596 C.ar    1  UNL1        0.0016
      7 C          65.4000   93.5112   10.8265 C.ar    1  UNL1        0.0016
      8 C          64.3216   92.5523   11.2356 C.ar    1  UNL1        0.0188
      9 C          64.5516   91.6077   12.3778 C.ar    1  UNL1        0.0789
     10 C          63.9622   88.8246   15.0184 C.3     1  UNL1        0.0729
     11 C          63.4766   89.1443   16.4011 C.3     1  UNL1        0.0103
     12 C          62.9868   88.0453   17.2968 C.3     1  UNL1        0.0178
     13 C          62.9826   86.6266   16.8098 C.3     1  UNL1        0.0721
     14 N          63.4682   86.3070   15.4271 N.3     1  UNL1       -0.2734
     15 C          63.9580   87.4060   14.5314 C.3     1  UNL1        0.0795
     16 C          63.4639   84.8882   14.9400 C.3     1  UNL1        0.0625
     17 C          62.3304   83.9746   15.3012 C.3     1  UNL1        0.0481
     18 C          62.3262   82.5559   14.8141 C.3     1  UNL1        0.1435
     19 O          63.4555   82.0507   13.9658 O.3     1  UNL1       -0.3537
     20 C          64.5890   82.9643   13.6046 C.3     1  UNL1        0.1435
     21 C          64.5932   84.3831   14.0917 C.3     1  UNL1        0.0481
     22 C          62.2855   90.2050   12.5826 C.3     1  UNL1        0.1339
     23 C          61.6148   87.1473    9.3499 C.ar    1  UNL1        0.1387
     24 C          61.0651   88.5345    9.1959 C.ar    1  UNL1        0.0366
     25 C          61.2887   89.5537   10.2735 C.ar    1  UNL1        0.0007
     26 C          62.0620   89.1858   11.5051 C.ar    1  UNL1        0.0006
     27 C          62.6115   87.7986   11.6591 C.ar    1  UNL1        0.0007
     28 C          62.3879   86.7794   10.5815 C.ar    1  UNL1        0.0366
     29 C          60.0534   86.0273    7.6012 C.3     1  UNL1        0.2525
     30 O          61.3912   86.1281    8.2723 O.3     1  UNL1       -0.4714
@<TRIPOS>BOND
     1    29    30    1
     2    30    23    1
     3    23    24   ar
     4    24    25   ar
     5    25    26   ar
     6    26    22    1
     7    22     1    1
     8     1     2   ar
     9     2    10    1
    10    10    11    1
    11    11    12    1
    12    12    13    1
    13    13    14    1
    14    14    16    1
    15    16    17    1
    16    17    18    1
    17    18    19    1
    18    19    20    1
    19    20    21    1
    20    14    15    1
    21     2     3   ar
    22     3     4   ar
    23     4     5   ar
    24     5     6   ar
    25     6     7   ar
    26     7     8   ar
    27     8     9   ar
    28    26    27   ar
    29    27    28   ar
    30    28    23   ar
    31     9     1   ar
    32    15    10    1
    33     9     4   ar
    34    21    16    1
@<TRIPOS>MOLECULE
*****
 30 34 0 0 0
SMALL
GASTEIGER

@<TRIPOS>ATOM
      1 N          63.2034   84.2909   13.0166 N.ar    1  UNL1       -0.3106
      2 C          63.0096   84.5131   14.4873 C.ar    1  UNL1        0.1215
      3 N          62.6776   83.1922   15.1158 N.ar    1  UNL1       -0.2309
      4 C          62.6663   82.1537   14.0336 C.ar    1  UNL1        0.0983
      5 C          62.4021   80.6774   14.0620 C.ar    1  UNL1        0.0206
      6 C          62.4629   79.8802   12.7929 C.ar    1  UNL1        0.0016
      7 C          62.7878   80.5592   11.4954 C.ar    1  UNL1        0.0016
      8 C          63.0520   82.0354   11.4671 C.ar    1  UNL1        0.0188
      9 C          62.9913   82.8327   12.7362 C.ar    1  UNL1        0.0789
     10 C          63.1270   85.8258   15.2036 C.3     1  UNL1        0.0729
     11 C          62.8298   85.9083   16.6716 C.3     1  UNL1        0.0103
     12 C          62.9473   87.2209   17.3879 C.3     1  UNL1        0.0178
     13 C          63.3619   88.4510   16.6364 C.3     1  UNL1        0.0721
     14 N          63.6591   88.3685   15.1685 N.3     1  UNL1       -0.2734
     15 C          63.5417   87.0559   14.4521 C.3     1  UNL1        0.0795
     16 C          64.0738   89.5987   14.4168 C.3     1  UNL1        0.0625
     17 C          63.3936   89.9552   13.1283 C.3     1  UNL1        0.0481
     18 C          63.8082   91.1852   12.3767 C.3     1  UNL1        0.1435
     19 O          64.9031   92.0589   12.9136 O.3     1  UNL1       -0.3537
     20 C          65.5832   91.7024   14.2021 C.3     1  UNL1        0.1435
     21 C          65.1685   90.4722   14.9537 C.3     1  UNL1        0.0481
     22 C          63.5487   85.3423   12.0040 C.3     1  UNL1        0.1339
     23 C          60.5448   86.5173    8.8662 C.ar    1  UNL1        0.1387
     24 C          61.7326   85.6813    8.4916 C.ar    1  UNL1        0.0366
     25 C          62.7339   85.2896    9.5375 C.ar    1  UNL1        0.0007
     26 C          62.5475   85.7339   10.9581 C.ar    1  UNL1        0.0006
     27 C          61.3597   86.5700   11.3326 C.ar    1  UNL1        0.0007
     28 C          60.3584   86.9616   10.2867 C.ar    1  UNL1        0.0366
     29 C          59.3044   88.3584    7.5163 C.3     1  UNL1        0.2525
     30 O          59.5435   86.9090    7.8203 O.3     1  UNL1       -0.4714
@<TRIPOS>BOND
     1    29    30    1
     2    30    23    1
     3    23    24   ar
     4    24    25   ar
     5    25    26   ar
     6    26    22    1
     7    22     1    1
     8     1     2   ar
     9     2    10    1
    10    10    11    1
    11    11    12    1
    12    12    13    1
    13    13    14    1
    14    14    16    1
    15    16    17    1
    16    17    18    1
    17    18    19    1
    18    19    20    1
    19    20    21    1
    20    14    15    1
    21     2     3   ar
    22     3     4   ar
    23     4     5   ar
    24     5     6   ar
    25     6     7   ar
    26     7     8   ar
    27     8     9   ar
    28    26    27   ar
    29    27    28   ar
    30    28    23   ar
    31     9     1   ar
    32    15    10    1
    33     9     4   ar
    34    21    16    1
@<TRIPOS>MOLECULE
*****
 30 34 0 0 0
SMALL
GASTEIGER

@<TRIPOS>ATOM
      1 N          61.6702   88.3255   10.6668 N.ar    1  UNL1       -0.3106
      2 C          62.1375   89.7366   10.4664 C.ar    1  UNL1        0.1215
      3 N          61.4346   90.2912    9.2629 N.ar    1  UNL1       -0.2309
      4 C          60.5329   89.2227    8.7195 C.ar    1  UNL1        0.0983
      5 C          59.5981   89.1991    7.5467 C.ar    1  UNL1        0.0206
      6 C          58.8088   87.9606    7.2415 C.ar    1  UNL1        0.0016
      7 C          58.9544   86.7457    8.1092 C.ar    1  UNL1        0.0016
      8 C          59.8893   86.7693    9.2820 C.ar    1  UNL1        0.0188
      9 C          60.6785   88.0078    9.5871 C.ar    1  UNL1        0.0789
     10 C          63.1329   90.4653   11.3197 C.3     1  UNL1        0.0729
     11 C          63.1339   90.2668   12.8065 C.3     1  UNL1        0.0103
     12 C          64.1293   90.9955   13.6598 C.3     1  UNL1        0.0178
     13 C          65.1238   91.9227   13.0264 C.3     1  UNL1        0.0721
     14 N          65.1228   92.1213   11.5396 N.3     1  UNL1       -0.2734
     15 C          64.1274   91.3926   10.6863 C.3     1  UNL1        0.0795
     16 C          66.1172   93.0485   10.9060 C.3     1  UNL1        0.0625
     17 C          67.2906   92.4910   10.1562 C.3     1  UNL1        0.0481
     18 C          68.2851   93.4182    9.5227 C.3     1  UNL1        0.1435
     19 O          68.1061   94.9030    9.6390 O.3     1  UNL1       -0.3537
     20 C          66.9327   95.4605   10.3888 C.3     1  UNL1        0.1435
     21 C          65.9383   94.5332   11.0224 C.3     1  UNL1        0.0481
     22 C          62.1162   87.3952   11.7556 C.3     1  UNL1        0.1339
     23 C          63.6850   83.3067   10.7199 C.ar    1  UNL1        0.1387
     24 C          63.5194   83.7046   12.1567 C.ar    1  UNL1        0.0366
     25 C          62.9965   85.0674   12.5019 C.ar    1  UNL1        0.0007
     26 C          62.6391   86.0324   11.4104 C.ar    1  UNL1        0.0006
     27 C          62.8048   85.6344    9.9737 C.ar    1  UNL1        0.0007
     28 C          63.3277   84.2715    9.6285 C.ar    1  UNL1        0.0366
     29 C          63.2835   80.7624   10.3793 C.3     1  UNL1        0.2525
     30 O          64.2080   81.9438   10.3747 O.3     1  UNL1       -0.4714
@<TRIPOS>BOND
     1    29    30    1
     2    30    23    1
     3    23    24   ar
     4    24    25   ar
     5    25    26   ar
     6    26    22    1
     7    22     1    1
     8     1     2   ar
     9     2    10    1
    10    10    11    1
    11    11    12    1
    12    12    13    1
    13    13    14    1
    14    14    16    1
    15    16    17    1
    16    17    18    1
    17    18    19    1
    18    19    20    1
    19    20    21    1
    20    14    15    1
    21     2     3   ar
    22     3     4   ar
    23     4     5   ar
    24     5     6   ar
    25     6     7   ar
    26     7     8   ar
    27     8     9   ar
    28    26    27   ar
    29    27    28   ar
    30    28    23   ar
    31     9     1   ar
    32    15    10    1
    33     9     4   ar
    34    21    16    1
@<TRIPOS>MOLECULE
*****
 30 34 0 0 0
SMALL
GASTEIGER

@<TRIPOS>ATOM
      1 N          63.0985   86.2970   12.6166 N.ar    1  UNL1       -0.3106
      2 C          63.6974   86.7351   13.9202 C.ar    1  UNL1        0.1215
      3 N          64.1519   85.5098   14.6565 N.ar    1  UNL1       -0.2309
      4 C          63.8340   84.3145   13.8080 C.ar    1  UNL1        0.0983
      5 C          64.0531   82.8459   14.0204 C.ar    1  UNL1        0.0206
      6 C          63.6213   81.8638   12.9721 C.ar    1  UNL1        0.0016
      7 C          62.9703   82.3503   11.7114 C.ar    1  UNL1        0.0016
      8 C          62.7511   83.8189   11.4989 C.ar    1  UNL1        0.0188
      9 C          63.1829   84.8010   12.5472 C.ar    1  UNL1        0.0789
     10 C          63.8202   88.1500   14.4028 C.3     1  UNL1        0.0729
     11 C          63.4347   88.4987   15.8099 C.3     1  UNL1        0.0103
     12 C          63.5575   89.9136   16.2924 C.3     1  UNL1        0.0178
     13 C          64.0657   90.9799   15.3680 C.3     1  UNL1        0.0721
     14 N          64.4512   90.6313   13.9609 N.3     1  UNL1       -0.2734
     15 C          64.3284   89.2163   13.4784 C.3     1  UNL1        0.0795
     16 C          64.9595   91.6976   13.0364 C.3     1  UNL1        0.0625
     17 C          65.8932   92.7531   13.5503 C.3     1  UNL1        0.0481
     18 C          66.4014   93.8194   12.6258 C.3     1  UNL1        0.1435
     19 O          65.9760   93.8302   11.1874 O.3     1  UNL1       -0.3537
     20 C          65.0423   92.7746   10.6735 C.3     1  UNL1        0.1435
     21 C          64.5341   91.7083   11.5981 C.3     1  UNL1        0.0481
     22 C          62.5173   87.1969   11.5667 C.3     1  UNL1        0.1339
     23 C          61.2055   85.4900    7.6150 C.ar    1  UNL1        0.1387
     24 C          60.2091   86.1714    8.5055 C.ar    1  UNL1        0.0366
     25 C          60.6464   86.7404    9.8227 C.ar    1  UNL1        0.0007
     26 C          62.0801   86.6279   10.2495 C.ar    1  UNL1        0.0006
     27 C          63.0764   85.9465    9.3590 C.ar    1  UNL1        0.0007
     28 C          62.6391   85.3776    8.0418 C.ar    1  UNL1        0.0366
     29 C          61.7594   84.2185    5.4181 C.3     1  UNL1        0.2525
     30 O          60.7682   84.9211    6.2978 O.3     1  UNL1       -0.4714
@<TRIPOS>BOND
     1    29    30    1
     2    30    23    1
     3    23    24   ar
     4    24    25   ar
     5    25    26   ar
     6    26    22    1
     7    22     1    1
     8     1     2   ar
     9     2    10    1
    10    10    11    1
    11    11    12    1
    12    12    13    1
    13    13    14    1
    14    14    16    1
    15    16    17    1
    16    17    18    1
    17    18    19    1
    18    19    20    1
    19    20    21    1
    20    14    15    1
    21     2     3   ar
    22     3     4   ar
    23     4     5   ar
    24     5     6   ar
    25     6     7   ar
    26     7     8   ar
    27     8     9   ar
    28    26    27   ar
    29    27    28   ar
    30    28    23   ar
    31     9     1   ar
    32    15    10    1
    33     9     4   ar
    34    21    16    1
@<TRIPOS>MOLECULE
*****
 30 34 0 0 0
SMALL
GASTEIGER

@<TRIPOS>ATOM
      1 N          63.4288   87.4907   12.9665 N.ar    1  UNL1       -0.3106
      2 C          63.2814   88.9816   13.0400 C.ar    1  UNL1        0.1215
      3 N          62.5556   89.4368   11.8087 N.ar    1  UNL1       -0.2309
      4 C          62.2545   88.2272   10.9743 C.ar    1  UNL1        0.0983
      5 C          61.5586   88.0657    9.6554 C.ar    1  UNL1        0.0206
      6 C          61.4024   86.7013    9.0520 C.ar    1  UNL1        0.0016
      7 C          61.9421   85.4985    9.7675 C.ar    1  UNL1        0.0016
      8 C          62.6380   85.6601   11.0864 C.ar    1  UNL1        0.0188
      9 C          62.7942   87.0244   11.6898 C.ar    1  UNL1        0.0789
     10 C          63.7734   89.8626   14.1499 C.3     1  UNL1        0.0729
     11 C          62.9206   90.0871   15.3633 C.3     1  UNL1        0.0103
     12 C          63.4126   90.9681   16.4731 C.3     1  UNL1        0.0178
     13 C          64.7573   91.6246   16.3696 C.3     1  UNL1        0.0721
     14 N          65.6100   91.4001   15.1562 N.3     1  UNL1       -0.2734
     15 C          65.1180   90.5191   14.0463 C.3     1  UNL1        0.0795
     16 C          66.9548   92.0566   15.0526 C.3     1  UNL1        0.0625
     17 C          67.3715   93.0772   16.0698 C.3     1  UNL1        0.0481
     18 C          68.7162   93.7337   15.9663 C.3     1  UNL1        0.1435
     19 O          69.6442   93.3696   14.8455 O.3     1  UNL1       -0.3537
     20 C          69.2276   92.3490   13.8282 C.3     1  UNL1        0.1435
     21 C          67.8828   91.6925   13.9318 C.3     1  UNL1        0.0481
     22 C          64.0942   86.6189   13.9899 C.3     1  UNL1        0.1339
     23 C          63.0585   82.2468   14.2373 C.ar    1  UNL1        0.1387
     24 C          64.2411   82.6928   13.4296 C.ar    1  UNL1        0.0366
     25 C          64.5863   84.1502   13.3471 C.ar    1  UNL1        0.0007
     26 C          63.7489   85.1616   14.0724 C.ar    1  UNL1        0.0006
     27 C          62.5663   84.7155   14.8801 C.ar    1  UNL1        0.0007
     28 C          62.2211   83.2581   14.9625 C.ar    1  UNL1        0.0366
     29 C          62.3769   80.0265   13.0726 C.3     1  UNL1        0.2525
     30 O          62.7133   80.7894   14.3197 O.3     1  UNL1       -0.4714
@<TRIPOS>BOND
     1    29    30    1
     2    30    23    1
     3    23    24   ar
     4    24    25   ar
     5    25    26   ar
     6    26    22    1
     7    22     1    1
     8     1     2   ar
     9     2    10    1
    10    10    11    1
    11    11    12    1
    12    12    13    1
    13    13    14    1
    14    14    16    1
    15    16    17    1
    16    17    18    1
    17    18    19    1
    18    19    20    1
    19    20    21    1
    20    14    15    1
    21     2     3   ar
    22     3     4   ar
    23     4     5   ar
    24     5     6   ar
    25     6     7   ar
    26     7     8   ar
    27     8     9   ar
    28    26    27   ar
    29    27    28   ar
    30    28    23   ar
    31     9     1   ar
    32    15    10    1
    33     9     4   ar
    34    21    16    1
@<TRIPOS>MOLECULE
*****
 30 34 0 0 0
SMALL
GASTEIGER

@<TRIPOS>ATOM
      1 N          62.3829   86.9347   10.5297 N.ar    1  UNL1       -0.3106
      2 C          62.2739   88.2783   11.1876 C.ar    1  UNL1        0.1215
      3 N          61.1291   89.0127   10.5550 N.ar    1  UNL1       -0.2309
      4 C          60.5307   88.1230    9.5060 C.ar    1  UNL1        0.0983
      5 C          59.3803   88.3164    8.5631 C.ar    1  UNL1        0.0206
      6 C          59.0048   87.2255    7.6045 C.ar    1  UNL1        0.0016
      7 C          59.7797   85.9412    7.5889 C.ar    1  UNL1        0.0016
      8 C          60.9300   85.7478    8.5318 C.ar    1  UNL1        0.0188
      9 C          61.3056   86.8387    9.4904 C.ar    1  UNL1        0.0789
     10 C          63.1549   88.7965   12.2855 C.3     1  UNL1        0.0729
     11 C          63.3805   87.9723   13.5182 C.3     1  UNL1        0.0103
     12 C          64.2615   88.4905   14.6161 C.3     1  UNL1        0.0178
     13 C          64.9169   89.8329   14.4812 C.3     1  UNL1        0.0721
     14 N          64.6912   90.6572   13.2485 N.3     1  UNL1       -0.2734
     15 C          63.8102   90.1390   12.1507 C.3     1  UNL1        0.0795
     16 C          65.3466   91.9997   13.1136 C.3     1  UNL1        0.0625
     17 C          65.2934   92.7323   11.8057 C.3     1  UNL1        0.0481
     18 C          65.9487   94.0747   11.6708 C.3     1  UNL1        0.1435
     19 O          66.6573   94.6848   12.8438 O.3     1  UNL1       -0.3537
     20 C          66.7106   93.9522   14.1517 C.3     1  UNL1        0.1435
     21 C          66.0552   92.6097   14.2866 C.3     1  UNL1        0.0481
     22 C          63.3921   85.8734   10.8541 C.3     1  UNL1        0.1339
     23 C          62.2328   82.3834   13.4475 C.ar    1  UNL1        0.1387
     24 C          62.3184   83.7601   14.0370 C.ar    1  UNL1        0.0366
     25 C          62.7048   84.9234   13.1725 C.ar    1  UNL1        0.0007
     26 C          63.0057   84.7101   11.7185 C.ar    1  UNL1        0.0006
     27 C          62.9201   83.3335   11.1290 C.ar    1  UNL1        0.0007
     28 C          62.5336   82.1702   11.9935 C.ar    1  UNL1        0.0366
     29 C          60.4888   80.5980   14.1695 C.3     1  UNL1        0.2525
     30 O          61.8464   81.2201   14.3120 O.3     1  UNL1       -0.4714
@<TRIPOS>BOND
     1    29    30    1
     2    30    23    1
     3    23    24   ar
     4    24    25   ar
     5    25    26   ar
     6    26    22    1
     7    22     1    1
     8     1     2   ar
     9     2    10    1
    10    10    11    1
    11    11    12    1
    12    12    13    1
    13    13    14    1
    14    14    16    1
    15    16    17    1
    16    17    18    1
    17    18    19    1
    18    19    20    1
    19    20    21    1
    20    14    15    1
    21     2     3   ar
    22     3     4   ar
    23     4     5   ar
    24     5     6   ar
    25     6     7   ar
    26     7     8   ar
    27     8     9   ar
    28    26    27   ar
    29    27    28   ar
    30    28    23   ar
    31     9     1   ar
    32    15    10    1
    33     9     4   ar
    34    21    16    1
@<TRIPOS>MOLECULE
*****
 30 34 0 0 0
SMALL
GASTEIGER

@<TRIPOS>ATOM
      1 N          63.5010   83.4993   11.6141 N.ar    1  UNL1       -0.3106
      2 C          63.4128   84.0702   12.9984 C.ar    1  UNL1        0.1215
      3 N          63.0372   82.9599   13.9345 N.ar    1  UNL1       -0.2309
      4 C          62.8934   81.7029   13.1287 C.ar    1  UNL1        0.0983
      5 C          62.5384   80.2978   13.5156 C.ar    1  UNL1        0.0206
      6 C          62.4701   79.2261   12.4684 C.ar    1  UNL1        0.0016
      7 C          62.7568   79.5595   11.0343 C.ar    1  UNL1        0.0016
      8 C          63.1117   80.9646   10.6474 C.ar    1  UNL1        0.0188
      9 C          63.1800   82.0363   11.6946 C.ar    1  UNL1        0.0789
     10 C          63.6571   85.5002   13.3797 C.3     1  UNL1        0.0729
     11 C          64.4118   85.8232   14.6351 C.3     1  UNL1        0.0103
     12 C          64.6561   87.2532   15.0164 C.3     1  UNL1        0.0178
     13 C          64.1459   88.3602   14.1422 C.3     1  UNL1        0.0721
     14 N          63.3913   88.0372   12.8868 N.3     1  UNL1       -0.2734
     15 C          63.1469   86.6071   12.5055 C.3     1  UNL1        0.0795
     16 C          62.8810   89.1442   12.0125 C.3     1  UNL1        0.0625
     17 C          61.4692   89.1103   11.5069 C.3     1  UNL1        0.0481
     18 C          60.9589   90.2172   10.6327 C.3     1  UNL1        0.1435
     19 O          61.8604   91.3581   10.2641 O.3     1  UNL1       -0.3537
     20 C          63.2723   91.3919   10.7697 C.3     1  UNL1        0.1435
     21 C          63.7825   90.2849   11.6439 C.3     1  UNL1        0.0481
     22 C          63.8492   84.2582   10.3680 C.3     1  UNL1        0.1339
     23 C          60.5934   86.1355    7.8929 C.ar    1  UNL1        0.1387
     24 C          61.7374   85.4355    7.2209 C.ar    1  UNL1        0.0366
     25 C          62.8226   84.8098    8.0459 C.ar    1  UNL1        0.0007
     26 C          62.7640   84.8840    9.5430 C.ar    1  UNL1        0.0006
     27 C          61.6200   85.5839   10.2149 C.ar    1  UNL1        0.0007
     28 C          60.5348   86.2096    9.3899 C.ar    1  UNL1        0.0366
     29 C          59.0661   88.1663    7.3514 C.3     1  UNL1        0.2525
     30 O          59.5082   86.7612    7.0678 O.3     1  UNL1       -0.4714
@<TRIPOS>BOND
     1    29    30    1
     2    30    23    1
     3    23    24   ar
     4    24    25   ar
     5    25    26   ar
     6    26    22    1
     7    22     1    1
     8     1     2   ar
     9     2    10    1
    10    10    11    1
    11    11    12    1
    12    12    13    1
    13    13    14    1
    14    14    16    1
    15    16    17    1
    16    17    18    1
    17    18    19    1
    18    19    20    1
    19    20    21    1
    20    14    15    1
    21     2     3   ar
    22     3     4   ar
    23     4     5   ar
    24     5     6   ar
    25     6     7   ar
    26     7     8   ar
    27     8     9   ar
    28    26    27   ar
    29    27    28   ar
    30    28    23   ar
    31     9     1   ar
    32    15    10    1
    33     9     4   ar
    34    21    16    1
@<TRIPOS>MOLECULE
*****
 30 34 0 0 0
SMALL
GASTEIGER

@<TRIPOS>ATOM
      1 N          62.5614   85.1301   10.7245 N.ar    1  UNL1       -0.3106
      2 C          62.2091   86.0028   11.8925 C.ar    1  UNL1        0.1215
      3 N          62.2506   85.1581   13.1313 N.ar    1  UNL1       -0.2309
      4 C          62.6284   83.7634   12.7290 C.ar    1  UNL1        0.0983
      5 C          62.8224   82.5069   13.5250 C.ar    1  UNL1        0.0206
      6 C          63.2085   81.2331   12.8334 C.ar    1  UNL1        0.0016
      7 C          63.4006   81.2158   11.3459 C.ar    1  UNL1        0.0016
      8 C          63.2067   82.4722   10.5499 C.ar    1  UNL1        0.0188
      9 C          62.8206   83.7460   11.2415 C.ar    1  UNL1        0.0789
     10 C          61.8742   87.4637   11.8322 C.3     1  UNL1        0.0729
     11 C          60.4449   87.9009   11.7075 C.3     1  UNL1        0.0103
     12 C          60.1099   89.3618   11.6472 C.3     1  UNL1        0.0178
     13 C          61.2044   90.3855   11.7116 C.3     1  UNL1        0.0721
     14 N          62.6338   89.9482   11.8363 N.3     1  UNL1       -0.2734
     15 C          62.9687   88.4873   11.8966 C.3     1  UNL1        0.0795
     16 C          63.7284   90.9719   11.9007 C.3     1  UNL1        0.0625
     17 C          64.1020   91.7486   10.6730 C.3     1  UNL1        0.0481
     18 C          65.1966   92.7722   10.7374 C.3     1  UNL1        0.1435
     19 O          65.9175   93.0192   12.0294 O.3     1  UNL1       -0.3537
     20 C          65.5439   92.2425   13.2571 C.3     1  UNL1        0.1435
     21 C          64.4493   91.2188   13.1927 C.3     1  UNL1        0.0481
     22 C          62.6407   85.5650    9.2911 C.3     1  UNL1        0.1339
     23 C          59.4328   88.2032    7.5594 C.ar    1  UNL1        0.1387
     24 C          59.2916   86.7112    7.4967 C.ar    1  UNL1        0.0366
     25 C          60.3609   85.8318    8.0740 C.ar    1  UNL1        0.0007
     26 C          61.5715   86.4444    8.7139 C.ar    1  UNL1        0.0006
     27 C          61.7126   87.9364    8.7765 C.ar    1  UNL1        0.0007
     28 C          60.6433   88.8158    8.1993 C.ar    1  UNL1        0.0366
     29 C          58.7249   90.1553    5.9977 C.3     1  UNL1        0.2525
     30 O          58.3635   89.0826    6.9822 O.3     1  UNL1       -0.4714
@<TRIPOS>BOND
     1    29    30    1
     2    30    23    1
     3    23    24   ar
     4    24    25   ar
     5    25    26   ar
     6    26    22    1
     7    22     1    1
     8     1     2   ar
     9     2    10    1
    10    10    11    1
    11    11    12    1
    12    12    13    1
    13    13    14    1
    14    14    16    1
    15    16    17    1
    16    17    18    1
    17    18    19    1
    18    19    20    1
    19    20    21    1
    20    14    15    1
    21     2     3   ar
    22     3     4   ar
    23     4     5   ar
    24     5     6   ar
    25     6     7   ar
    26     7     8   ar
    27     8     9   ar
    28    26    27   ar
    29    27    28   ar
    30    28    23   ar
    31     9     1   ar
    32    15    10    1
    33     9     4   ar
    34    21    16    1
