@<TRIPOS>MOLECULE
*****
 33 36 0 0 0
SMALL
GASTEIGER

@<TRIPOS>ATOM
      1 C          63.9425   89.0170   14.1699 C.2     1  UNL1        0.2320
      2 O          64.5442   87.6984   14.5561 O.2     1  UNL1       -0.2744
      3 N          63.0585   89.1130   12.9619 N.am    1  UNL1       -0.2639
      4 H          62.6635   89.9784   12.7084 H       1  UNL1        0.1567
      5 C          62.7761   87.8904   12.1402 C.ar    1  UNL1        0.1655
      6 N          63.2970   86.5092   12.4066 N.ar    1  UNL1       -0.2238
      7 C          62.7662   85.5994   11.3388 C.ar    1  UNL1        0.0914
      8 C          61.9171   86.4182   10.4122 C.ar    1  UNL1        0.0573
      9 S          61.9233   87.8341   10.9074 S.2     1  UNL1       -0.0508
     10 C          63.0368   84.1289   11.2186 C.ar    1  UNL1        0.0425
     11 C          63.6163   83.4340   10.0222 C.ar    1  UNL1        0.1021
     12 N          63.7131   81.9708   10.3379 N.ar    1  UNL1       -0.2269
     13 C          63.1934   81.7614   11.7293 C.ar    1  UNL1        0.1428
     14 N          63.0468   80.5285   12.5710 N.ar    1  UNL1       -0.3373
     15 C          62.4822   80.6295   13.9570 C.ar    1  UNL1        0.0758
     16 C          62.0643   81.9633   14.5013 C.ar    1  UNL1        0.0482
     17 C          62.2109   83.1961   13.6596 C.ar    1  UNL1        0.1445
     18 F          61.7929   84.5299   14.2039 F       1  UNL1       -0.2040
     19 C          62.7754   83.0952   12.2736 C.ar    1  UNL1        0.0644
     20 H          63.3211   79.6531   12.2138 H       1  UNL1        0.1674
     21 C          64.2248   90.2397   14.9917 C.3     1  UNL1        0.1117
     22 C          65.5980   92.8659   12.3521 C.ar    1  UNL1        0.0641
     23 C          66.5347   93.6653   13.2085 C.ar    1  UNL1        0.0158
     24 C          66.7016   93.3228   14.6593 C.ar    1  UNL1        0.0010
     25 C          65.9316   92.1809   15.2538 C.ar    1  UNL1       -0.0037
     26 C          64.9948   91.3816   14.3973 C.ar    1  UNL1       -0.0118
     27 C          64.8280   91.7241   12.9464 C.ar    1  UNL1        0.0121
     28 N          65.4311   93.2084   10.9013 N.pl3   1  UNL1       -0.2187
     29 H          64.5775   93.0237   10.4469 H       1  UNL1        0.1734
     30 C          67.6986   94.4564    9.3842 C.3     1  UNL1        0.1996
     31 S          66.5649   93.8323   10.1428 S.O2    1  UNL1        0.0558
     32 O          65.8799   95.1649   10.2151 O.2     1  UNL1       -0.1544
     33 O          67.2499   92.4999   10.0704 O.2     1  UNL1       -0.1544
@<TRIPOS>BOND
     1    30    31    1
     2    31    32    2
     3    31    33    2
     4    31    28    1
     5    28    22    1
     6    22    23   ar
     7    23    24   ar
     8    24    25   ar
     9    25    26   ar
    10    26    21    1
    11    21     1    1
    12     1     2    2
    13     1     3   am
    14     3     5    1
    15     5     6   ar
    16     6     7   ar
    17     7    10    1
    18    10    11   ar
    19    11    12   ar
    20    12    13   ar
    21    13    14   ar
    22    14    15   ar
    23    15    16   ar
    24    16    17   ar
    25    17    18    1
    26    17    19   ar
    27     7     8   ar
    28     8     9   ar
    29    26    27   ar
    30    27    22   ar
    31     9     5   ar
    32    19    10   ar
    33    19    13    1
    34    28    29    1
    35     3     4    1
    36    14    20    1
@<TRIPOS>MOLECULE
*****
 33 36 0 0 0
SMALL
GASTEIGER

@<TRIPOS>ATOM
      1 C          64.6054   85.9943   14.9433 C.2     1  UNL1        0.2320
      2 O          66.0183   86.4328   15.1911 O.2     1  UNL1       -0.2744
      3 N          63.4926   86.9996   14.9696 N.am    1  UNL1       -0.2639
      4 H          62.5652   86.7118   14.8070 H       1  UNL1        0.1567
      5 C          63.7925   88.4435   15.2435 C.ar    1  UNL1        0.1655
      6 N          64.7146   89.3189   14.4476 N.ar    1  UNL1       -0.2238
      7 C          64.7150   90.6820   15.0736 C.ar    1  UNL1        0.0914
      8 C          63.7932   90.6491   16.2565 C.ar    1  UNL1        0.0573
      9 S          63.2231   89.2656   16.3615 S.2     1  UNL1       -0.0508
     10 C          65.4995   91.8695   14.6000 C.ar    1  UNL1        0.0425
     11 C          66.3891   92.7325   15.4449 C.ar    1  UNL1        0.1021
     12 N          66.9715   93.7989   14.5654 N.ar    1  UNL1       -0.2269
     13 C          66.4419   93.5950   13.1769 C.ar    1  UNL1        0.1428
     14 N          66.6704   94.3411   11.8959 N.ar    1  UNL1       -0.3373
     15 C          65.9892   93.8948   10.6363 C.ar    1  UNL1        0.0758
     16 C          65.0794   92.7023   10.6577 C.ar    1  UNL1        0.0482
     17 C          64.8509   91.9563   11.9387 C.ar    1  UNL1        0.1445
     18 F          63.9411   90.7638   11.9601 F       1  UNL1       -0.2040
     19 C          65.5321   92.4026   13.1983 C.ar    1  UNL1        0.0644
     20 H          67.2675   95.1237   11.8818 H       1  UNL1        0.1674
     21 C          64.3054   84.5503   14.6694 C.3     1  UNL1        0.1117
     22 C          62.5724   84.4682   11.1001 C.ar    1  UNL1        0.0641
     23 C          63.1895   83.2332   10.5136 C.ar    1  UNL1        0.0158
     24 C          64.1787   82.4372   11.3124 C.ar    1  UNL1        0.0010
     25 C          64.5507   82.8762   12.6978 C.ar    1  UNL1       -0.0037
     26 C          63.9335   84.1113   13.2842 C.ar    1  UNL1       -0.0118
     27 C          62.9443   84.9073   12.4853 C.ar    1  UNL1        0.0121
     28 N          61.5833   85.2642   10.3013 N.pl3   1  UNL1       -0.2187
     29 H          60.8090   84.8166    9.8896 H       1  UNL1        0.1734
     30 C          61.9645   88.2200    9.9579 C.3     1  UNL1        0.1996
     31 S          61.7739   86.7421   10.1296 S.O2    1  UNL1        0.0558
     32 O          62.6748   86.4897    8.9571 O.2     1  UNL1       -0.1544
     33 O          60.8730   86.9945   11.3020 O.2     1  UNL1       -0.1544
@<TRIPOS>BOND
     1    30    31    1
     2    31    32    2
     3    31    33    2
     4    31    28    1
     5    28    22    1
     6    22    23   ar
     7    23    24   ar
     8    24    25   ar
     9    25    26   ar
    10    26    21    1
    11    21     1    1
    12     1     2    2
    13     1     3   am
    14     3     5    1
    15     5     6   ar
    16     6     7   ar
    17     7    10    1
    18    10    11   ar
    19    11    12   ar
    20    12    13   ar
    21    13    14   ar
    22    14    15   ar
    23    15    16   ar
    24    16    17   ar
    25    17    18    1
    26    17    19   ar
    27     7     8   ar
    28     8     9   ar
    29    26    27   ar
    30    27    22   ar
    31     9     5   ar
    32    19    10   ar
    33    19    13    1
    34    28    29    1
    35     3     4    1
    36    14    20    1
@<TRIPOS>MOLECULE
*****
 33 36 0 0 0
SMALL
GASTEIGER

@<TRIPOS>ATOM
      1 C          62.1499   86.7332   10.4720 C.2     1  UNL1        0.2320
      2 O          62.6153   87.1184    9.0990 O.2     1  UNL1       -0.2744
      3 N          62.1564   87.7466   11.5779 N.am    1  UNL1       -0.2639
      4 H          61.8509   87.4937   12.4790 H       1  UNL1        0.1567
      5 C          62.6281   89.1451   11.3108 C.ar    1  UNL1        0.1655
      6 N          63.7915   89.8243   11.9705 N.ar    1  UNL1       -0.2238
      7 C          63.9017   91.2090   11.4046 C.ar    1  UNL1        0.0914
      8 C          62.8064   91.3858   10.3952 C.ar    1  UNL1        0.0573
      9 S          62.0192   90.1102   10.3372 S.2     1  UNL1       -0.0508
     10 C          64.9272   92.2367   11.7819 C.ar    1  UNL1        0.0425
     11 C          65.5046   93.2811   10.8731 C.ar    1  UNL1        0.1021
     12 N          66.4896   94.0902   11.6638 N.ar    1  UNL1       -0.2269
     13 C          66.5209   93.5459   13.0612 C.ar    1  UNL1        0.1428
     14 N          67.3039   93.9454   14.2766 N.ar    1  UNL1       -0.3373
     15 C          67.1214   93.1993   15.5650 C.ar    1  UNL1        0.0758
     16 C          66.1558   92.0538   15.6380 C.ar    1  UNL1        0.0482
     17 C          65.3727   91.6543   14.4226 C.ar    1  UNL1        0.1445
     18 F          64.4071   90.5087   14.4956 F       1  UNL1       -0.2040
     19 C          65.5553   92.4003   13.1342 C.ar    1  UNL1        0.0644
     20 H          67.9377   94.6972   14.2287 H       1  UNL1        0.1674
     21 C          61.6782   85.3346   10.7391 C.3     1  UNL1        0.1117
     22 C          63.5917   83.5796   13.7405 C.ar    1  UNL1        0.0641
     23 C          64.2991   82.4723   13.0170 C.ar    1  UNL1        0.0158
     24 C          64.1329   82.3191   11.5341 C.ar    1  UNL1        0.0010
     25 C          63.2592   83.2732   10.7747 C.ar    1  UNL1       -0.0037
     26 C          62.5518   84.3805   11.4984 C.ar    1  UNL1       -0.0118
     27 C          62.7180   84.5337   12.9813 C.ar    1  UNL1        0.0121
     28 N          63.7579   83.7328   15.2234 N.pl3   1  UNL1       -0.2187
     29 H          63.9849   82.9508   15.7767 H       1  UNL1        0.1734
     30 C          63.3984   86.4223   16.5032 C.3     1  UNL1        0.1996
     31 S          63.5781   85.0775   15.8633 S.O2    1  UNL1        0.0558
     32 O          64.8970   85.5206   15.3025 O.2     1  UNL1       -0.1544
     33 O          62.2593   84.6345   16.4240 O.2     1  UNL1       -0.1544
@<TRIPOS>BOND
     1    30    31    1
     2    31    32    2
     3    31    33    2
     4    31    28    1
     5    28    22    1
     6    22    23   ar
     7    23    24   ar
     8    24    25   ar
     9    25    26   ar
    10    26    21    1
    11    21     1    1
    12     1     2    2
    13     1     3   am
    14     3     5    1
    15     5     6   ar
    16     6     7   ar
    17     7    10    1
    18    10    11   ar
    19    11    12   ar
    20    12    13   ar
    21    13    14   ar
    22    14    15   ar
    23    15    16   ar
    24    16    17   ar
    25    17    18    1
    26    17    19   ar
    27     7     8   ar
    28     8     9   ar
    29    26    27   ar
    30    27    22   ar
    31     9     5   ar
    32    19    10   ar
    33    19    13    1
    34    28    29    1
    35     3     4    1
    36    14    20    1
@<TRIPOS>MOLECULE
*****
 33 36 0 0 0
SMALL
GASTEIGER

@<TRIPOS>ATOM
      1 C          62.2785   87.1337   10.5768 C.2     1  UNL1        0.2320
      2 O          61.9805   88.3190    9.7072 O.2     1  UNL1       -0.2744
      3 N          62.8774   87.3335   11.9375 N.am    1  UNL1       -0.2639
      4 H          63.0730   86.5556   12.5082 H       1  UNL1        0.1567
      5 C          63.1783   88.7185   12.4285 C.ar    1  UNL1        0.1655
      6 N          63.8376   89.0690   13.7294 N.ar    1  UNL1       -0.2238
      7 C          63.9395   90.5633   13.8098 C.ar    1  UNL1        0.0914
      8 C          63.3431   91.1365   12.5585 C.ar    1  UNL1        0.0573
      9 S          62.8726   89.9963   11.7048 S.2     1  UNL1       -0.0508
     10 C          64.5334   91.3469   14.9425 C.ar    1  UNL1        0.0425
     11 C          63.8652   91.6500   16.2508 C.ar    1  UNL1        0.1021
     12 N          64.8187   92.4554   17.0827 N.ar    1  UNL1       -0.2269
     13 C          66.0763   92.6502   16.2885 C.ar    1  UNL1        0.1428
     14 N          67.3591   93.3629   16.5989 N.ar    1  UNL1       -0.3373
     15 C          68.4656   93.3905   15.5866 C.ar    1  UNL1        0.0758
     16 C          68.2893   92.7054   14.2639 C.ar    1  UNL1        0.0482
     17 C          67.0064   91.9927   13.9535 C.ar    1  UNL1        0.1445
     18 F          66.8301   91.3076   12.6308 F       1  UNL1       -0.2040
     19 C          65.8999   91.9651   14.9658 C.ar    1  UNL1        0.0644
     20 H          67.4748   93.8126   17.4670 H       1  UNL1        0.1674
     21 C          61.9776   85.7486   10.0858 C.3     1  UNL1        0.1117
     22 C          63.5796   83.1470   12.6187 C.ar    1  UNL1        0.0641
     23 C          64.3112   82.2428   11.6714 C.ar    1  UNL1        0.0158
     24 C          64.2649   82.5072   10.1956 C.ar    1  UNL1        0.0010
     25 C          63.4870   83.6759    9.6671 C.ar    1  UNL1       -0.0037
     26 C          62.7555   84.5801   10.6144 C.ar    1  UNL1       -0.0118
     27 C          62.8018   84.3156   12.0902 C.ar    1  UNL1        0.0121
     28 N          63.6258   82.8826   14.0945 N.pl3   1  UNL1       -0.2187
     29 H          63.5879   81.9579   14.4303 H       1  UNL1        0.1734
     30 C          63.8336   85.1715   16.0227 C.3     1  UNL1        0.1996
     31 S          63.7298   84.0270   15.0585 S.O2    1  UNL1        0.0558
     32 O          62.3630   83.7060   15.5870 O.2     1  UNL1       -0.1544
     33 O          65.0964   84.3481   14.5302 O.2     1  UNL1       -0.1544
@<TRIPOS>BOND
     1    30    31    1
     2    31    32    2
     3    31    33    2
     4    31    28    1
     5    28    22    1
     6    22    23   ar
     7    23    24   ar
     8    24    25   ar
     9    25    26   ar
    10    26    21    1
    11    21     1    1
    12     1     2    2
    13     1     3   am
    14     3     5    1
    15     5     6   ar
    16     6     7   ar
    17     7    10    1
    18    10    11   ar
    19    11    12   ar
    20    12    13   ar
    21    13    14   ar
    22    14    15   ar
    23    15    16   ar
    24    16    17   ar
    25    17    18    1
    26    17    19   ar
    27     7     8   ar
    28     8     9   ar
    29    26    27   ar
    30    27    22   ar
    31     9     5   ar
    32    19    10   ar
    33    19    13    1
    34    28    29    1
    35     3     4    1
    36    14    20    1
@<TRIPOS>MOLECULE
*****
 33 36 0 0 0
SMALL
GASTEIGER

@<TRIPOS>ATOM
      1 C          62.0957   87.1029   10.6683 C.2     1  UNL1        0.2320
      2 O          62.3812   87.5000    9.2503 O.2     1  UNL1       -0.2744
      3 N          62.3385   88.0766   11.7831 N.am    1  UNL1       -0.2639
      4 H          62.1510   87.8160   12.7138 H       1  UNL1        0.1567
      5 C          62.8669   89.4473   11.4800 C.ar    1  UNL1        0.1655
      6 N          63.9448   90.1642   12.2377 N.ar    1  UNL1       -0.2238
      7 C          64.1543   91.5017   11.5920 C.ar    1  UNL1        0.0914
      8 C          63.2058   91.6116   10.4352 C.ar    1  UNL1        0.0573
      9 S          62.4101   90.3419   10.3660 S.2     1  UNL1       -0.0508
     10 C          65.1393   92.5461   12.0267 C.ar    1  UNL1        0.0425
     11 C          65.6132   93.7077   11.2045 C.ar    1  UNL1        0.1021
     12 N          66.5902   94.4917   12.0296 N.ar    1  UNL1       -0.2269
     13 C          66.7201   93.8147   13.3618 C.ar    1  UNL1        0.1428
     14 N          67.5391   94.1378   14.5762 N.ar    1  UNL1       -0.3373
     15 C          67.4613   93.2583   15.7889 C.ar    1  UNL1        0.0758
     16 C          66.5647   92.0558   15.7871 C.ar    1  UNL1        0.0482
     17 C          65.7457   91.7328   14.5727 C.ar    1  UNL1        0.1445
     18 F          64.8491   90.5303   14.5709 F       1  UNL1       -0.2040
     19 C          65.8234   92.6122   13.3600 C.ar    1  UNL1        0.0644
     20 H          68.1276   94.9270   14.5774 H       1  UNL1        0.1674
     21 C          61.5672   85.7322   10.9714 C.3     1  UNL1        0.1117
     22 C          63.4448   82.4543   12.1879 C.ar    1  UNL1        0.0641
     23 C          64.3614   82.2052   11.0270 C.ar    1  UNL1        0.0158
     24 C          64.3466   83.1318    9.8475 C.ar    1  UNL1        0.0010
     25 C          63.4152   84.3075    9.8289 C.ar    1  UNL1       -0.0037
     26 C          62.4986   84.5566   10.9900 C.ar    1  UNL1       -0.0118
     27 C          62.5134   83.6299   12.1695 C.ar    1  UNL1        0.0121
     28 N          63.4595   81.5277   13.3674 N.pl3   1  UNL1       -0.2187
     29 H          64.3008   81.3584   13.8499 H       1  UNL1        0.1734
     30 C          60.9254   80.1902   14.2561 C.3     1  UNL1        0.1996
     31 S          62.1925   80.8590   13.8118 S.O2    1  UNL1        0.0558
     32 O          62.3580   79.8291   12.7338 O.2     1  UNL1       -0.1544
     33 O          62.0270   81.8888   14.8897 O.2     1  UNL1       -0.1544
@<TRIPOS>BOND
     1    30    31    1
     2    31    32    2
     3    31    33    2
     4    31    28    1
     5    28    22    1
     6    22    23   ar
     7    23    24   ar
     8    24    25   ar
     9    25    26   ar
    10    26    21    1
    11    21     1    1
    12     1     2    2
    13     1     3   am
    14     3     5    1
    15     5     6   ar
    16     6     7   ar
    17     7    10    1
    18    10    11   ar
    19    11    12   ar
    20    12    13   ar
    21    13    14   ar
    22    14    15   ar
    23    15    16   ar
    24    16    17   ar
    25    17    18    1
    26    17    19   ar
    27     7     8   ar
    28     8     9   ar
    29    26    27   ar
    30    27    22   ar
    31     9     5   ar
    32    19    10   ar
    33    19    13    1
    34    28    29    1
    35     3     4    1
    36    14    20    1
@<TRIPOS>MOLECULE
*****
 33 36 0 0 0
SMALL
GASTEIGER

@<TRIPOS>ATOM
      1 C          62.4327   85.5663   10.4916 C.2     1  UNL1        0.2320
      2 O          62.8614   86.3667    9.2976 O.2     1  UNL1       -0.2744
      3 N          62.2129   86.2460   11.8105 N.am    1  UNL1       -0.2639
      4 H          61.9315   85.7207   12.5942 H       1  UNL1        0.1567
      5 C          62.4219   87.7260   11.9356 C.ar    1  UNL1        0.1655
      6 N          63.5450   88.3993   12.6673 N.ar    1  UNL1       -0.2238
      7 C          63.3617   89.8820   12.5348 C.ar    1  UNL1        0.0914
      8 C          62.1252   90.1254   11.7213 C.ar    1  UNL1        0.0573
      9 S          61.5444   88.7929   11.3509 S.2     1  UNL1       -0.0508
     10 C          64.2575   90.9365   13.1142 C.ar    1  UNL1        0.0425
     11 C          64.6426   91.0704   14.5577 C.ar    1  UNL1        0.1021
     12 N          65.5486   92.2588   14.6874 N.ar    1  UNL1       -0.2269
     13 C          65.7234   92.8594   13.3240 C.ar    1  UNL1        0.1428
     14 N          66.5061   94.0448   12.8423 N.ar    1  UNL1       -0.3373
     15 C          66.4908   94.4130   11.3883 C.ar    1  UNL1        0.0758
     16 C          65.6929   93.5958   10.4160 C.ar    1  UNL1        0.0482
     17 C          64.9102   92.4103   10.8977 C.ar    1  UNL1        0.1445
     18 F          64.1122   91.5931    9.9254 F       1  UNL1       -0.2040
     19 C          64.9255   92.0421   12.3517 C.ar    1  UNL1        0.0644
     20 H          67.0299   94.5812   13.4804 H       1  UNL1        0.1674
     21 C          62.2237   84.0862   10.3665 C.3     1  UNL1        0.1117
     22 C          63.1604   82.8256   14.0112 C.ar    1  UNL1        0.0641
     23 C          63.3552   81.3592   13.7626 C.ar    1  UNL1        0.0158
     24 C          63.1729   80.8018   12.3820 C.ar    1  UNL1        0.0010
     25 C          62.7957   81.7108   11.2499 C.ar    1  UNL1       -0.0037
     26 C          62.6009   83.1772   11.4986 C.ar    1  UNL1       -0.0118
     27 C          62.7832   83.7346   12.8792 C.ar    1  UNL1        0.0121
     28 N          63.3427   83.3830   15.3918 N.pl3   1  UNL1       -0.2187
     29 H          63.2854   82.7882   16.1743 H       1  UNL1        0.1734
     30 C          63.8818   86.3100   15.7686 C.3     1  UNL1        0.1996
     31 S          63.6122   84.8464   15.5802 S.O2    1  UNL1        0.0558
     32 O          64.9925   84.6641   15.0220 O.2     1  UNL1       -0.1544
     33 O          62.2319   85.0289   16.1383 O.2     1  UNL1       -0.1544
@<TRIPOS>BOND
     1    30    31    1
     2    31    32    2
     3    31    33    2
     4    31    28    1
     5    28    22    1
     6    22    23   ar
     7    23    24   ar
     8    24    25   ar
     9    25    26   ar
    10    26    21    1
    11    21     1    1
    12     1     2    2
    13     1     3   am
    14     3     5    1
    15     5     6   ar
    16     6     7   ar
    17     7    10    1
    18    10    11   ar
    19    11    12   ar
    20    12    13   ar
    21    13    14   ar
    22    14    15   ar
    23    15    16   ar
    24    16    17   ar
    25    17    18    1
    26    17    19   ar
    27     7     8   ar
    28     8     9   ar
    29    26    27   ar
    30    27    22   ar
    31     9     5   ar
    32    19    10   ar
    33    19    13    1
    34    28    29    1
    35     3     4    1
    36    14    20    1
@<TRIPOS>MOLECULE
*****
 33 36 0 0 0
SMALL
GASTEIGER

@<TRIPOS>ATOM
      1 C          62.4113   87.5049   11.5226 C.2     1  UNL1        0.2320
      2 O          62.1563   88.8889   11.0033 O.2     1  UNL1       -0.2744
      3 N          63.1940   87.3108   12.7874 N.am    1  UNL1       -0.2639
      4 H          63.3613   86.4025   13.1282 H       1  UNL1        0.1567
      5 C          63.7217   88.5006   13.5328 C.ar    1  UNL1        0.1655
      6 N          64.4201   89.6819   12.9272 N.ar    1  UNL1       -0.2238
      7 C          64.7737   90.6294   14.0349 C.ar    1  UNL1        0.0914
      8 C          64.2938   90.0338   15.3253 C.ar    1  UNL1        0.0573
      9 S          63.6437   88.7181   15.0150 S.2     1  UNL1       -0.0508
     10 C          65.4827   91.9421   13.8797 C.ar    1  UNL1        0.0425
     11 C          66.2127   92.6831   14.9604 C.ar    1  UNL1        0.1021
     12 N          66.7673   93.9433   14.3650 N.ar    1  UNL1       -0.2269
     13 C          66.3801   93.9811   12.9163 C.ar    1  UNL1        0.1428
     14 N          66.6479   94.9819   11.8316 N.ar    1  UNL1       -0.3373
     15 C          66.1217   94.7459   10.4470 C.ar    1  UNL1        0.0758
     16 C          65.3277   93.5091   10.1470 C.ar    1  UNL1        0.0482
     17 C          65.0600   92.5083   11.2317 C.ar    1  UNL1        0.1445
     18 F          64.2660   91.2715   10.9317 F       1  UNL1       -0.2040
     19 C          65.5861   92.7443   12.6164 C.ar    1  UNL1        0.0644
     20 H          67.1690   95.7936   12.0285 H       1  UNL1        0.1674
     21 C          61.8836   86.3150   10.7771 C.3     1  UNL1        0.1117
     22 C          63.4019   82.8744   12.0448 C.ar    1  UNL1        0.0641
     23 C          64.1626   82.4352   10.8290 C.ar    1  UNL1        0.0158
     24 C          64.1637   83.2892    9.5958 C.ar    1  UNL1        0.0010
     25 C          63.4040   84.5825    9.5785 C.ar    1  UNL1       -0.0037
     26 C          62.6432   85.0218   10.7944 C.ar    1  UNL1       -0.0118
     27 C          62.6422   84.1677   12.0276 C.ar    1  UNL1        0.0121
     28 N          63.4008   82.0204   13.2780 N.pl3   1  UNL1       -0.2187
     29 H          64.2347   81.8842   13.7831 H       1  UNL1        0.1734
     30 C          60.8572   80.7276   14.2050 C.3     1  UNL1        0.1996
     31 S          62.1290   81.3740   13.7414 S.O2    1  UNL1        0.0558
     32 O          61.9204   82.4886   14.7235 O.2     1  UNL1       -0.1544
     33 O          62.3376   80.2595   12.7595 O.2     1  UNL1       -0.1544
@<TRIPOS>BOND
     1    30    31    1
     2    31    32    2
     3    31    33    2
     4    31    28    1
     5    28    22    1
     6    22    23   ar
     7    23    24   ar
     8    24    25   ar
     9    25    26   ar
    10    26    21    1
    11    21     1    1
    12     1     2    2
    13     1     3   am
    14     3     5    1
    15     5     6   ar
    16     6     7   ar
    17     7    10    1
    18    10    11   ar
    19    11    12   ar
    20    12    13   ar
    21    13    14   ar
    22    14    15   ar
    23    15    16   ar
    24    16    17   ar
    25    17    18    1
    26    17    19   ar
    27     7     8   ar
    28     8     9   ar
    29    26    27   ar
    30    27    22   ar
    31     9     5   ar
    32    19    10   ar
    33    19    13    1
    34    28    29    1
    35     3     4    1
    36    14    20    1
@<TRIPOS>MOLECULE
*****
 33 36 0 0 0
SMALL
GASTEIGER

@<TRIPOS>ATOM
      1 C          63.2503   88.7959   12.4841 C.2     1  UNL1        0.2320
      2 O          62.4990   87.7855   11.6688 O.2     1  UNL1       -0.2744
      3 N          63.9927   88.3649   13.7141 N.am    1  UNL1       -0.2639
      4 H          64.4858   89.0281   14.2492 H       1  UNL1        0.1567
      5 C          63.9838   86.9235   14.1290 C.ar    1  UNL1        0.1655
      6 N          63.2278   85.8168   13.4555 N.ar    1  UNL1       -0.2238
      7 C          63.5061   84.5450   14.2004 C.ar    1  UNL1        0.0914
      8 C          64.4342   84.8656   15.3344 C.ar    1  UNL1        0.0573
      9 S          64.7295   86.3356   15.2902 S.2     1  UNL1       -0.0508
     10 C          62.9534   83.1903   13.8696 C.ar    1  UNL1        0.0425
     11 C          62.0936   82.3466   14.7633 C.ar    1  UNL1        0.1021
     12 N          61.7723   81.0764   14.0330 N.ar    1  UNL1       -0.2269
     13 C          62.4336   81.1351   12.6879 C.ar    1  UNL1        0.1428
     14 N          62.4653   80.1677   11.5420 N.ar    1  UNL1       -0.3373
     15 C          63.2270   80.5068   10.2951 C.ar    1  UNL1        0.0758
     16 C          63.9570   81.8133   10.1941 C.ar    1  UNL1        0.0482
     17 C          63.9253   82.7807   11.3400 C.ar    1  UNL1        0.1445
     18 F          64.6552   84.0872   11.2390 F       1  UNL1       -0.2040
     19 C          63.1635   82.4416   12.5869 C.ar    1  UNL1        0.0644
     20 H          61.9862   79.3102   11.6083 H       1  UNL1        0.1674
     21 C          63.2592   90.2374   12.0692 C.3     1  UNL1        0.1117
     22 C          66.2014   92.8998   11.9989 C.ar    1  UNL1        0.0641
     23 C          66.5673   92.9564   13.4525 C.ar    1  UNL1        0.0158
     24 C          65.8305   92.1067   14.4450 C.ar    1  UNL1        0.0010
     25 C          64.7277   91.2003   13.9839 C.ar    1  UNL1       -0.0037
     26 C          64.3619   91.1437   12.5303 C.ar    1  UNL1       -0.0118
     27 C          65.0987   91.9935   11.5378 C.ar    1  UNL1        0.0121
     28 N          66.9382   93.7496   11.0064 N.pl3   1  UNL1       -0.2187
     29 H          66.8855   94.7310   11.0636 H       1  UNL1        0.1734
     30 C          68.5723   92.4583    8.8471 C.3     1  UNL1        0.1996
     31 S          67.7552   93.1040    9.9267 S.O2    1  UNL1        0.0558
     32 O          68.3981   92.2116   10.9468 O.2     1  UNL1       -0.1544
     33 O          67.1124   93.9963    8.9067 O.2     1  UNL1       -0.1544
@<TRIPOS>BOND
     1    30    31    1
     2    31    32    2
     3    31    33    2
     4    31    28    1
     5    28    22    1
     6    22    23   ar
     7    23    24   ar
     8    24    25   ar
     9    25    26   ar
    10    26    21    1
    11    21     1    1
    12     1     2    2
    13     1     3   am
    14     3     5    1
    15     5     6   ar
    16     6     7   ar
    17     7    10    1
    18    10    11   ar
    19    11    12   ar
    20    12    13   ar
    21    13    14   ar
    22    14    15   ar
    23    15    16   ar
    24    16    17   ar
    25    17    18    1
    26    17    19   ar
    27     7     8   ar
    28     8     9   ar
    29    26    27   ar
    30    27    22   ar
    31     9     5   ar
    32    19    10   ar
    33    19    13    1
    34    28    29    1
    35     3     4    1
    36    14    20    1
@<TRIPOS>MOLECULE
*****
 33 36 0 0 0
SMALL
GASTEIGER

@<TRIPOS>ATOM
      1 C          62.9040   89.7139   11.8422 C.2     1  UNL1        0.2320
      2 O          63.1369   90.5512   10.6197 O.2     1  UNL1       -0.2744
      3 N          63.6606   90.0032   13.1047 N.am    1  UNL1       -0.2639
      4 H          63.5077   89.4536   13.9071 H       1  UNL1        0.1567
      5 C          64.6501   91.1297   13.1446 C.ar    1  UNL1        0.1655
      6 N          64.6659   92.3221   12.2346 N.ar    1  UNL1       -0.2238
      7 C          65.8231   93.1911   12.6291 C.ar    1  UNL1        0.0914
      8 C          66.5226   92.5358   13.7830 C.ar    1  UNL1        0.0573
      9 S          65.7976   91.2619   14.1016 S.2     1  UNL1       -0.0508
     10 C          66.2125   94.4877   11.9832 C.ar    1  UNL1        0.0425
     11 C          66.1364   95.8456   12.6158 C.ar    1  UNL1        0.1021
     12 N          66.6233   96.8511   11.6149 N.ar    1  UNL1       -0.2269
     13 C          67.0003   96.1146   10.3637 C.ar    1  UNL1        0.1428
     14 N          67.5420   96.5854    9.0465 N.ar    1  UNL1       -0.3373
     15 C          67.8297   95.5954    7.9570 C.ar    1  UNL1        0.0758
     16 C          67.5758   94.1346    8.1847 C.ar    1  UNL1        0.0482
     17 C          67.0342   93.6639    9.5018 C.ar    1  UNL1        0.1445
     18 F          66.7803   92.2032    9.7295 F       1  UNL1       -0.2040
     19 C          66.7464   94.6539   10.5913 C.ar    1  UNL1        0.0644
     20 H          67.7086   97.5441    8.8971 H       1  UNL1        0.1674
     21 C          61.9145   88.5873   11.8023 C.3     1  UNL1        0.1117
     22 C          62.7676   84.7691   11.1362 C.ar    1  UNL1        0.0641
     23 C          62.9348   84.7718    9.6455 C.ar    1  UNL1        0.0158
     24 C          62.7618   86.0464    8.8737 C.ar    1  UNL1        0.0010
     25 C          62.4217   87.3183    9.5927 C.ar    1  UNL1       -0.0037
     26 C          62.2546   87.3155   11.0834 C.ar    1  UNL1       -0.0118
     27 C          62.4275   86.0408   11.8551 C.ar    1  UNL1        0.0121
     28 N          62.9406   83.4946   11.9079 N.pl3   1  UNL1       -0.2187
     29 H          62.6731   82.6361   11.5069 H       1  UNL1        0.1734
     30 C          64.1018   83.5613   14.6733 C.3     1  UNL1        0.1996
     31 S          63.5211   83.5279   13.2906 S.O2    1  UNL1        0.0558
     32 O          64.8489   83.9344   12.7233 O.2     1  UNL1       -0.1544
     33 O          62.1934   83.1214   13.8580 O.2     1  UNL1       -0.1544
@<TRIPOS>BOND
     1    30    31    1
     2    31    32    2
     3    31    33    2
     4    31    28    1
     5    28    22    1
     6    22    23   ar
     7    23    24   ar
     8    24    25   ar
     9    25    26   ar
    10    26    21    1
    11    21     1    1
    12     1     2    2
    13     1     3   am
    14     3     5    1
    15     5     6   ar
    16     6     7   ar
    17     7    10    1
    18    10    11   ar
    19    11    12   ar
    20    12    13   ar
    21    13    14   ar
    22    14    15   ar
    23    15    16   ar
    24    16    17   ar
    25    17    18    1
    26    17    19   ar
    27     7     8   ar
    28     8     9   ar
    29    26    27   ar
    30    27    22   ar
    31     9     5   ar
    32    19    10   ar
    33    19    13    1
    34    28    29    1
    35     3     4    1
    36    14    20    1
