@<TRIPOS>MOLECULE
*****
 51 55 0 0 0
SMALL
GASTEIGER

@<TRIPOS>ATOM
      1 C          60.5626   88.9186    9.0691 C.3     1  UNL1        0.0760
      2 C          59.4225   89.4285    6.7909 C.2     1  UNL1        0.2415
      3 O          59.7985   88.0630    6.2971 O.2     1  UNL1       -0.2733
      4 N          59.8045   89.8564    8.1769 N.am    1  UNL1       -0.3043
      5 H          59.5577   90.7527    8.5010 H       1  UNL1        0.1494
      6 N          61.1593   92.2862    3.4066 N.am    1  UNL1       -0.2565
      7 C          62.6143   92.3881    3.0568 C.3     1  UNL1        0.1168
      8 C          60.7125   91.3527    4.4923 C.2     1  UNL1        0.3085
      9 O          61.7209   90.5210    5.2283 O.2     1  UNL1       -0.2523
     10 N          59.2575   91.2508    4.8421 N.am    1  UNL1       -0.2464
     11 C          58.1398   92.0153    4.1968 C.3     1  UNL1        0.1540
     12 S          56.8562   91.6034    4.8545 S.3     1  UNL1       -0.1163
     13 C          57.1805   90.5843    5.9063 C.3     1  UNL1        0.0884
     14 C          58.6645   90.3663    5.8987 C.3     1  UNL1        0.1646
     15 C          60.1509   93.1179    2.6706 C.3     1  UNL1        0.1413
     16 C          59.0668   92.8195   -1.0443 C.ar    1  UNL1        0.0875
     17 N          58.7315   92.9520    0.4117 N.ar    1  UNL1       -0.2453
     18 C          60.0181   92.9921    1.1818 C.ar    1  UNL1        0.0858
     19 C          61.1485   92.8843    0.2018 C.ar    1  UNL1        0.0530
     20 S          60.5607   92.7776   -1.1741 S.2     1  UNL1       -0.0705
     21 C          58.5024   93.1153   -3.5630 C.3     1  UNL1        0.0069
     22 C          58.0813   92.7423   -2.1725 C.3     1  UNL1        0.0465
     23 C          56.6747   92.2922   -1.9103 C.3     1  UNL1        0.0069
     24 C          61.6759   89.4378    9.9298 C.3     1  UNL1        0.0216
     25 C          61.5307   89.4410   11.4227 C.3     1  UNL1        0.0217
     26 C          62.7367   89.6355   12.2932 C.3     1  UNL1        0.0792
     27 N          63.5568   88.4520   12.7138 N.am    1  UNL1       -0.2720
     28 C          63.8790   88.2398   14.1634 C.2     1  UNL1        0.4019
     29 O          63.3811   89.2110   15.1923 O.2     1  UNL1       -0.2264
     30 H          63.8836   87.8145   12.0385 H       1  UNL1        0.1527
     31 O          64.6991   87.0563   14.5840 O.3     1  UNL1       -0.4291
     32 C          64.1143   86.0284   15.5066 C.3     1  UNL1        0.2447
     33 C          63.6985   84.6902   14.9715 C.ar    1  UNL1        0.0714
     34 C          64.5499   83.7640   14.1545 C.ar    1  UNL1        0.1053
     35 N          63.7359   82.5446   13.8375 N.ar    1  UNL1       -0.2350
     36 C          62.3814   82.7171   14.4585 C.ar    1  UNL1        0.1343
     37 S          62.3583   84.0431   15.1593 S.2     1  UNL1       -0.0652
     38 C          63.1227   91.0133   12.7431 C.3     1  UNL1        0.0460
     39 C          64.4558   91.5824   12.3571 C.ar    1  UNL1       -0.0205
     40 C          65.5421   91.7107   13.3835 C.ar    1  UNL1       -0.0042
     41 C          66.8752   92.2798   12.9975 C.ar    1  UNL1       -0.0003
     42 C          67.1220   92.7206   11.5852 C.ar    1  UNL1       -0.0000
     43 C          66.0357   92.5923   10.5588 C.ar    1  UNL1       -0.0003
     44 C          64.7026   92.0232   10.9448 C.ar    1  UNL1       -0.0042
     45 C          60.2072   87.4616    9.1006 C.3     1  UNL1        0.0459
     46 C          61.2488   86.4431    9.4580 C.ar    1  UNL1       -0.0205
     47 C          61.3699   85.9588   10.8725 C.ar    1  UNL1       -0.0042
     48 C          62.4115   84.9403   11.2299 C.ar    1  UNL1       -0.0003
     49 C          63.3320   84.4062   10.1727 C.ar    1  UNL1       -0.0000
     50 C          63.2109   84.8905    8.7583 C.ar    1  UNL1       -0.0003
     51 C          62.1692   85.9090    8.4009 C.ar    1  UNL1       -0.0042
@<TRIPOS>BOND
     1    21    22    1
     2    22    23    1
     3    22    16    1
     4    16    17   ar
     5    17    18   ar
     6    18    15    1
     7    15     6    1
     8     6     7    1
     9     6     8   am
    10     8     9    2
    11     8    10   am
    12    10    11    1
    13    11    12    1
    14    12    13    1
    15    13    14    1
    16    14     2    1
    17     2     3    2
    18     2     4   am
    19     4     1    1
    20     1    24    1
    21    24    25    1
    22    26    25    1
    23    26    38    1
    24    38    39    1
    25    39    40   ar
    26    40    41   ar
    27    41    42   ar
    28    42    43   ar
    29    43    44   ar
    30    26    27    1
    31    27    28   am
    32    28    29    2
    33    28    31    1
    34    31    32    1
    35    32    33    1
    36    33    34   ar
    37    34    35   ar
    38    35    36   ar
    39    36    37   ar
    40     1    45    1
    41    45    46    1
    42    46    47   ar
    43    47    48   ar
    44    48    49   ar
    45    49    50   ar
    46    50    51   ar
    47    18    19   ar
    48    19    20   ar
    49    20    16   ar
    50    14    10    1
    51    44    39   ar
    52    37    33   ar
    53    51    46   ar
    54     4     5    1
    55    27    30    1
@<TRIPOS>MOLECULE
*****
 51 55 0 0 0
SMALL
GASTEIGER

@<TRIPOS>ATOM
      1 C          60.6628   89.0272    9.0698 C.3     1  UNL1        0.0760
      2 C          59.3562   89.3943    6.8543 C.2     1  UNL1        0.2415
      3 O          59.6227   87.9714    6.4614 O.2     1  UNL1       -0.2733
      4 N          59.8763   89.9222    8.1585 N.am    1  UNL1       -0.3043
      5 H          59.7014   90.8561    8.4164 H       1  UNL1        0.1494
      6 N          61.0060   92.2472    3.4228 N.am    1  UNL1       -0.2565
      7 C          62.4578   92.3922    3.0751 C.3     1  UNL1        0.1168
      8 C          60.5876   91.3190    4.5243 C.2     1  UNL1        0.3085
      9 O          61.6213   90.5357    5.2781 O.2     1  UNL1       -0.2523
     10 N          59.1358   91.1740    4.8721 N.am    1  UNL1       -0.2464
     11 C          57.9949   91.8882    4.2099 C.3     1  UNL1        0.1540
     12 S          56.7238   91.4449    4.8717 S.3     1  UNL1       -0.1163
     13 C          57.0791   90.4568    5.9428 C.3     1  UNL1        0.0884
     14 C          58.5697   90.2893    5.9431 C.3     1  UNL1        0.1646
     15 C          59.9724   93.0306    2.6691 C.3     1  UNL1        0.1413
     16 C          61.3176   93.7857   -0.8925 C.ar    1  UNL1        0.0875
     17 N          61.5037   93.2270    0.4870 N.ar    1  UNL1       -0.2453
     18 C          60.2284   93.4375    1.2482 C.ar    1  UNL1        0.0858
     19 C          59.2543   94.1262    0.3392 C.ar    1  UNL1        0.0530
     20 S          59.9274   94.3415   -0.9840 S.2     1  UNL1       -0.0705
     21 C          61.9099   93.6629   -3.4192 C.3     1  UNL1        0.0069
     22 C          62.3420   93.7883   -1.9883 C.3     1  UNL1        0.0465
     23 C          63.7985   93.9162   -1.6532 C.3     1  UNL1        0.0069
     24 C          61.8944   89.5460    9.7509 C.3     1  UNL1        0.0216
     25 C          61.8195   90.7838   10.5949 C.3     1  UNL1        0.0217
     26 C          63.0008   91.2018   11.4196 C.3     1  UNL1        0.0792
     27 N          63.1097   90.7635   12.8499 N.am    1  UNL1       -0.2720
     28 C          63.3055   89.3126   13.1769 C.2     1  UNL1        0.4019
     29 O          63.3925   88.3003   12.0735 O.2     1  UNL1       -0.2264
     30 H          63.0526   91.4279   13.5741 H       1  UNL1        0.1527
     31 O          63.4145   88.8743   14.6073 O.3     1  UNL1       -0.4291
     32 C          64.4432   87.8572   15.0037 C.3     1  UNL1        0.2447
     33 C          64.0756   86.4043   15.0678 C.ar    1  UNL1        0.0714
     34 C          64.2337   85.4052   13.9603 C.ar    1  UNL1        0.1053
     35 N          63.7412   84.0789   14.4586 N.ar    1  UNL1       -0.2350
     36 C          63.2788   84.2583   15.8743 C.ar    1  UNL1        0.1343
     37 S          63.4854   85.6955   16.2507 S.2     1  UNL1       -0.0652
     38 C          64.0730   92.0582   10.8139 C.3     1  UNL1        0.0460
     39 C          65.4472   92.0766   11.4151 C.ar    1  UNL1       -0.0205
     40 C          66.6526   92.1751   10.5279 C.ar    1  UNL1       -0.0042
     41 C          68.0267   92.1934   11.1291 C.ar    1  UNL1       -0.0003
     42 C          68.1954   92.1133   12.6174 C.ar    1  UNL1       -0.0000
     43 C          66.9899   92.0148   13.5046 C.ar    1  UNL1       -0.0003
     44 C          65.6158   91.9964   12.9034 C.ar    1  UNL1       -0.0042
     45 C          60.2177   87.6133    9.2998 C.3     1  UNL1        0.0459
     46 C          61.2352   86.5324    9.5151 C.ar    1  UNL1       -0.0205
     47 C          62.0900   86.0687    8.3730 C.ar    1  UNL1       -0.0042
     48 C          63.1075   84.9878    8.5883 C.ar    1  UNL1       -0.0003
     49 C          63.2701   84.3705    9.9457 C.ar    1  UNL1       -0.0000
     50 C          62.4153   84.8341   11.0877 C.ar    1  UNL1       -0.0003
     51 C          61.3979   85.9150   10.8724 C.ar    1  UNL1       -0.0042
@<TRIPOS>BOND
     1    21    22    1
     2    22    23    1
     3    22    16    1
     4    16    17   ar
     5    17    18   ar
     6    18    15    1
     7    15     6    1
     8     6     7    1
     9     6     8   am
    10     8     9    2
    11     8    10   am
    12    10    11    1
    13    11    12    1
    14    12    13    1
    15    13    14    1
    16    14     2    1
    17     2     3    2
    18     2     4   am
    19     4     1    1
    20     1    24    1
    21    24    25    1
    22    26    25    1
    23    26    38    1
    24    38    39    1
    25    39    40   ar
    26    40    41   ar
    27    41    42   ar
    28    42    43   ar
    29    43    44   ar
    30    26    27    1
    31    27    28   am
    32    28    29    2
    33    28    31    1
    34    31    32    1
    35    32    33    1
    36    33    34   ar
    37    34    35   ar
    38    35    36   ar
    39    36    37   ar
    40     1    45    1
    41    45    46    1
    42    46    47   ar
    43    47    48   ar
    44    48    49   ar
    45    49    50   ar
    46    50    51   ar
    47    18    19   ar
    48    19    20   ar
    49    20    16   ar
    50    14    10    1
    51    44    39   ar
    52    37    33   ar
    53    51    46   ar
    54     4     5    1
    55    27    30    1
@<TRIPOS>MOLECULE
*****
 51 55 0 0 0
SMALL
GASTEIGER

@<TRIPOS>ATOM
      1 C          60.7844   89.0773    9.0361 C.3     1  UNL1        0.0760
      2 C          59.4016   89.4266    6.8644 C.2     1  UNL1        0.2415
      3 O          59.6072   87.9857    6.5017 O.2     1  UNL1       -0.2733
      4 N          59.9902   89.9724    8.1316 N.am    1  UNL1       -0.3043
      5 H          59.8552   90.9181    8.3697 H       1  UNL1        0.1494
      6 N          61.0245   92.2991    3.4365 N.am    1  UNL1       -0.2565
      7 C          62.4742   92.4514    3.0830 C.3     1  UNL1        0.1168
      8 C          60.6148   91.3650    4.5363 C.2     1  UNL1        0.3085
      9 O          61.6550   90.5832    5.2826 O.2     1  UNL1       -0.2523
     10 N          59.1651   91.2127    4.8898 N.am    1  UNL1       -0.2464
     11 C          58.0184   91.9246    4.2354 C.3     1  UNL1        0.1540
     12 S          56.7521   91.4736    4.9010 S.3     1  UNL1       -0.1163
     13 C          57.1161   90.4830    5.9669 C.3     1  UNL1        0.0884
     14 C          58.6074   90.3217    5.9600 C.3     1  UNL1        0.1646
     15 C          59.9843   93.0809    2.6902 C.3     1  UNL1        0.1413
     16 C          59.7673   93.9607   -1.0839 C.ar    1  UNL1        0.0875
     17 N          59.4852   94.2804    0.3542 N.ar    1  UNL1       -0.2453
     18 C          60.0430   93.1698    1.1940 C.ar    1  UNL1        0.0858
     19 C          60.6699   92.1637    0.2750 C.ar    1  UNL1        0.0530
     20 S          60.4995   92.6524   -1.1329 S.2     1  UNL1       -0.0705
     21 C          58.8747   96.1972   -2.0594 C.3     1  UNL1        0.0069
     22 C          59.3844   94.8016   -2.2656 C.3     1  UNL1        0.0465
     23 C          59.5112   94.2469   -3.6535 C.3     1  UNL1        0.0069
     24 C          62.0644   89.5698    9.6435 C.3     1  UNL1        0.0216
     25 C          62.0283   90.5743   10.7569 C.3     1  UNL1        0.0217
     26 C          63.3089   91.0893   11.3443 C.3     1  UNL1        0.0792
     27 N          63.3287   91.6284   12.7439 N.am    1  UNL1       -0.2720
     28 C          63.4940   90.6937   13.9054 C.2     1  UNL1        0.4019
     29 O          63.6396   89.2199   13.6672 O.2     1  UNL1       -0.2264
     30 H          63.2331   92.5957   12.9002 H       1  UNL1        0.1527
     31 O          63.5138   91.2328   15.3050 O.3     1  UNL1       -0.4291
     32 C          64.8016   91.7129   15.9057 C.3     1  UNL1        0.2447
     33 C          65.9575   92.0667   15.0176 C.ar    1  UNL1        0.0714
     34 C          66.1226   93.3466   14.2531 C.ar    1  UNL1        0.1053
     35 N          67.4184   93.2736   13.5010 N.ar    1  UNL1       -0.2350
     36 C          68.0542   91.9484   13.8008 C.ar    1  UNL1        0.1343
     37 S          67.1513   91.2026   14.7380 S.2     1  UNL1       -0.0652
     38 C          64.5697   91.0650   10.5320 C.3     1  UNL1        0.0460
     39 C          65.4238   92.2945   10.4359 C.ar    1  UNL1       -0.0205
     40 C          66.8675   92.1762   10.0467 C.ar    1  UNL1       -0.0042
     41 C          67.7215   93.4056    9.9507 C.ar    1  UNL1       -0.0003
     42 C          67.1317   94.7533   10.2438 C.ar    1  UNL1       -0.0000
     43 C          65.6879   94.8716   10.6330 C.ar    1  UNL1       -0.0003
     44 C          64.8339   93.6422   10.7291 C.ar    1  UNL1       -0.0042
     45 C          60.2986   87.6895    9.3331 C.3     1  UNL1        0.0459
     46 C          61.2812   86.6061    9.6658 C.ar    1  UNL1       -0.0205
     47 C          61.4288   86.1367   11.0829 C.ar    1  UNL1       -0.0042
     48 C          62.4114   85.0533   11.4156 C.ar    1  UNL1       -0.0003
     49 C          63.2463   84.4392   10.3312 C.ar    1  UNL1       -0.0000
     50 C          63.0987   84.9085    8.9142 C.ar    1  UNL1       -0.0003
     51 C          62.1161   85.9919    8.5815 C.ar    1  UNL1       -0.0042
@<TRIPOS>BOND
     1    21    22    1
     2    22    23    1
     3    22    16    1
     4    16    17   ar
     5    17    18   ar
     6    18    15    1
     7    15     6    1
     8     6     7    1
     9     6     8   am
    10     8     9    2
    11     8    10   am
    12    10    11    1
    13    11    12    1
    14    12    13    1
    15    13    14    1
    16    14     2    1
    17     2     3    2
    18     2     4   am
    19     4     1    1
    20     1    24    1
    21    24    25    1
    22    26    25    1
    23    26    38    1
    24    38    39    1
    25    39    40   ar
    26    40    41   ar
    27    41    42   ar
    28    42    43   ar
    29    43    44   ar
    30    26    27    1
    31    27    28   am
    32    28    29    2
    33    28    31    1
    34    31    32    1
    35    32    33    1
    36    33    34   ar
    37    34    35   ar
    38    35    36   ar
    39    36    37   ar
    40     1    45    1
    41    45    46    1
    42    46    47   ar
    43    47    48   ar
    44    48    49   ar
    45    49    50   ar
    46    50    51   ar
    47    18    19   ar
    48    19    20   ar
    49    20    16   ar
    50    14    10    1
    51    44    39   ar
    52    37    33   ar
    53    51    46   ar
    54     4     5    1
    55    27    30    1
@<TRIPOS>MOLECULE
*****
 51 55 0 0 0
SMALL
GASTEIGER

@<TRIPOS>ATOM
      1 C          63.2537   90.3783   13.3298 C.3     1  UNL1        0.0760
      2 C          63.2861   89.0418   15.5576 C.2     1  UNL1        0.2415
      3 O          63.5812   90.3048   16.3110 O.2     1  UNL1       -0.2733
      4 N          63.1224   89.0785   14.0670 N.am    1  UNL1       -0.3043
      5 H          62.9287   88.2495   13.5725 H       1  UNL1        0.1494
      6 N          63.7551   84.6374   13.8206 N.am    1  UNL1       -0.2565
      7 C          64.0710   84.3276   12.3874 C.3     1  UNL1        0.1168
      8 C          63.6278   86.0630   14.2694 C.2     1  UNL1        0.3085
      9 O          63.8164   87.1789   13.2848 O.2     1  UNL1       -0.2523
     10 N          63.3118   86.3728   15.7025 N.am    1  UNL1       -0.2464
     11 C          63.0975   85.3679   16.7953 C.3     1  UNL1        0.1540
     12 S          62.8079   86.1159   18.0628 S.3     1  UNL1       -0.1163
     13 C          62.8434   87.5833   17.7534 C.3     1  UNL1        0.0884
     14 C          63.1548   87.7421   16.2947 C.3     1  UNL1        0.1646
     15 C          63.5664   83.5215   14.8052 C.3     1  UNL1        0.1413
     16 C          60.8987   80.7774   14.1586 C.ar    1  UNL1        0.0875
     17 N          61.2955   82.1150   14.7094 N.ar    1  UNL1       -0.2453
     18 C          62.7548   82.3178   14.4281 C.ar    1  UNL1        0.0858
     19 C          63.2600   81.1056   13.7034 C.ar    1  UNL1        0.0530
     20 S          62.1130   80.1534   13.5369 S.2     1  UNL1       -0.0705
     21 C          58.3187   81.0237   13.9783 C.3     1  UNL1        0.0069
     22 C          59.5284   80.1702   14.2190 C.3     1  UNL1        0.0465
     23 C          59.3679   78.7095   14.5200 C.3     1  UNL1        0.0069
     24 C          62.6425   90.5338   11.9689 C.3     1  UNL1        0.0216
     25 C          63.2215   89.7963   10.7981 C.3     1  UNL1        0.0217
     26 C          62.3499   88.8967    9.9727 C.3     1  UNL1        0.0792
     27 N          61.4507   89.4801    8.9234 N.am    1  UNL1       -0.2720
     28 C          59.9621   89.4384    9.1037 C.2     1  UNL1        0.4019
     29 O          59.3728   88.8134   10.3333 O.2     1  UNL1       -0.2264
     30 H          61.8375   89.8904    8.1164 H       1  UNL1        0.1527
     31 O          59.0629   90.0218    8.0544 O.3     1  UNL1       -0.4291
     32 C          59.2487   89.6461    6.6142 C.3     1  UNL1        0.2447
     33 C          59.2362   90.7077    5.5545 C.ar    1  UNL1        0.0714
     34 C          58.0278   91.4468    5.0611 C.ar    1  UNL1        0.1053
     35 N          58.4747   92.4124    4.0038 N.ar    1  UNL1       -0.2350
     36 C          59.9593   92.2702    3.8438 C.ar    1  UNL1        0.1343
     37 S          60.4299   91.2166    4.8022 S.2     1  UNL1       -0.0652
     38 C          62.3774   87.4138   10.1968 C.3     1  UNL1        0.0460
     39 C          62.0959   86.4780    9.0588 C.ar    1  UNL1       -0.0205
     40 C          60.7109   86.3836    8.4905 C.ar    1  UNL1       -0.0042
     41 C          60.4294   85.4478    7.3526 C.ar    1  UNL1       -0.0003
     42 C          61.5328   84.6064    6.7829 C.ar    1  UNL1       -0.0000
     43 C          62.9177   84.7007    7.3512 C.ar    1  UNL1       -0.0003
     44 C          63.1993   85.6365    8.4892 C.ar    1  UNL1       -0.0042
     45 C          63.9963   91.5226   13.9537 C.3     1  UNL1        0.0459
     46 C          65.4610   91.7021   13.6844 C.ar    1  UNL1       -0.0205
     47 C          66.4598   91.4586   14.7767 C.ar    1  UNL1       -0.0042
     48 C          67.9245   91.6380   14.5074 C.ar    1  UNL1       -0.0003
     49 C          68.3903   92.0610   13.1457 C.ar    1  UNL1       -0.0000
     50 C          67.3915   92.3045   12.0534 C.ar    1  UNL1       -0.0003
     51 C          65.9269   92.1251   12.3228 C.ar    1  UNL1       -0.0042
@<TRIPOS>BOND
     1    21    22    1
     2    22    23    1
     3    22    16    1
     4    16    17   ar
     5    17    18   ar
     6    18    15    1
     7    15     6    1
     8     6     7    1
     9     6     8   am
    10     8     9    2
    11     8    10   am
    12    10    11    1
    13    11    12    1
    14    12    13    1
    15    13    14    1
    16    14     2    1
    17     2     3    2
    18     2     4   am
    19     4     1    1
    20     1    24    1
    21    24    25    1
    22    26    25    1
    23    26    38    1
    24    38    39    1
    25    39    40   ar
    26    40    41   ar
    27    41    42   ar
    28    42    43   ar
    29    43    44   ar
    30    26    27    1
    31    27    28   am
    32    28    29    2
    33    28    31    1
    34    31    32    1
    35    32    33    1
    36    33    34   ar
    37    34    35   ar
    38    35    36   ar
    39    36    37   ar
    40     1    45    1
    41    45    46    1
    42    46    47   ar
    43    47    48   ar
    44    48    49   ar
    45    49    50   ar
    46    50    51   ar
    47    18    19   ar
    48    19    20   ar
    49    20    16   ar
    50    14    10    1
    51    44    39   ar
    52    37    33   ar
    53    51    46   ar
    54     4     5    1
    55    27    30    1
@<TRIPOS>MOLECULE
*****
 51 55 0 0 0
SMALL
GASTEIGER

@<TRIPOS>ATOM
      1 C          63.9483   91.5752   11.2858 C.3     1  UNL1        0.0760
      2 C          61.9625   90.0312   10.6355 C.2     1  UNL1        0.2415
      3 O          60.9995   91.0289   11.2074 O.2     1  UNL1       -0.2733
      4 N          63.4370   90.3043   10.6747 N.am    1  UNL1       -0.3043
      5 H          64.0691   89.6495   10.2993 H       1  UNL1        0.1494
      6 N          63.0178   85.5611   11.8767 N.am    1  UNL1       -0.2565
      7 C          63.9551   85.1960   12.9894 C.3     1  UNL1        0.1168
      8 C          62.7509   87.0036   11.5637 C.2     1  UNL1        0.3085
      9 O          63.4215   88.0810   12.3635 O.2     1  UNL1       -0.2523
     10 N          61.8136   87.3686   10.4511 N.am    1  UNL1       -0.2464
     11 C          61.0741   86.4063    9.5696 C.3     1  UNL1        0.1540
     12 S          60.2546   87.2031    8.5982 S.3     1  UNL1       -0.1163
     13 C          60.4877   88.6580    8.8793 C.3     1  UNL1        0.0884
     14 C          61.4512   88.7603   10.0244 C.3     1  UNL1        0.1646
     15 C          62.3472   84.4836   11.0769 C.3     1  UNL1        0.1413
     16 C          62.1589   80.9609   12.6955 C.ar    1  UNL1        0.0875
     17 N          61.7331   82.3977   12.6315 N.ar    1  UNL1       -0.2453
     18 C          62.4700   83.0495   11.4992 C.ar    1  UNL1        0.0858
     19 C          63.3513   82.0156   10.8635 C.ar    1  UNL1        0.0530
     20 S          63.1591   80.7247   11.6027 S.2     1  UNL1       -0.0705
     21 C          62.5611   78.8028   14.0851 C.3     1  UNL1        0.0069
     22 C          61.6704   79.9395   13.6794 C.3     1  UNL1        0.0465
     23 C          60.2911   80.0547   14.2576 C.3     1  UNL1        0.0069
     24 C          64.2516   91.6325   12.7537 C.3     1  UNL1        0.0216
     25 C          63.4908   90.7640   13.7111 C.3     1  UNL1        0.0217
     26 C          63.9648   90.6136   15.1264 C.3     1  UNL1        0.0792
     27 N          65.2965   91.1703   15.5344 N.am    1  UNL1       -0.2720
     28 C          65.3660   92.3216   16.4936 C.2     1  UNL1        0.4019
     29 O          64.1039   92.9160   17.0446 O.2     1  UNL1       -0.2264
     30 H          66.1249   90.7802   15.1728 H       1  UNL1        0.1527
     31 O          66.6978   92.8783   16.9017 O.3     1  UNL1       -0.4291
     32 C          67.5283   93.6387   15.9107 C.3     1  UNL1        0.2447
     33 C          68.2684   92.9043   14.8323 C.ar    1  UNL1        0.0714
     34 C          69.7465   92.6524   14.7917 C.ar    1  UNL1        0.1053
     35 N          70.0519   91.8854   13.5394 N.ar    1  UNL1       -0.2350
     36 C          68.7625   91.6631   12.8059 C.ar    1  UNL1        0.1343
     37 S          67.6602   92.2929   13.6050 S.2     1  UNL1       -0.0652
     38 C          63.1070   89.9065   16.1334 C.3     1  UNL1        0.0460
     39 C          63.2745   88.4329   16.3585 C.ar    1  UNL1       -0.0205
     40 C          62.5922   87.7689   17.5177 C.ar    1  UNL1       -0.0042
     41 C          62.7597   86.2954   17.7427 C.ar    1  UNL1       -0.0003
     42 C          63.6094   85.4859   16.8085 C.ar    1  UNL1       -0.0000
     43 C          64.2916   86.1498   15.6494 C.ar    1  UNL1       -0.0003
     44 C          64.1241   87.6233   15.4244 C.ar    1  UNL1       -0.0042
     45 C          64.1564   92.7887   10.4290 C.3     1  UNL1        0.0459
     46 C          65.5469   93.2557   10.1150 C.ar    1  UNL1       -0.0205
     47 C          66.6374   92.2546    9.8725 C.ar    1  UNL1       -0.0042
     48 C          68.0278   92.7216    9.5586 C.ar    1  UNL1       -0.0003
     49 C          68.3278   94.1896    9.4872 C.ar    1  UNL1       -0.0000
     50 C          67.2373   95.1906    9.7297 C.ar    1  UNL1       -0.0003
     51 C          65.8468   94.7236   10.0436 C.ar    1  UNL1       -0.0042
@<TRIPOS>BOND
     1    21    22    1
     2    22    23    1
     3    22    16    1
     4    16    17   ar
     5    17    18   ar
     6    18    15    1
     7    15     6    1
     8     6     7    1
     9     6     8   am
    10     8     9    2
    11     8    10   am
    12    10    11    1
    13    11    12    1
    14    12    13    1
    15    13    14    1
    16    14     2    1
    17     2     3    2
    18     2     4   am
    19     4     1    1
    20     1    24    1
    21    24    25    1
    22    26    25    1
    23    26    38    1
    24    38    39    1
    25    39    40   ar
    26    40    41   ar
    27    41    42   ar
    28    42    43   ar
    29    43    44   ar
    30    26    27    1
    31    27    28   am
    32    28    29    2
    33    28    31    1
    34    31    32    1
    35    32    33    1
    36    33    34   ar
    37    34    35   ar
    38    35    36   ar
    39    36    37   ar
    40     1    45    1
    41    45    46    1
    42    46    47   ar
    43    47    48   ar
    44    48    49   ar
    45    49    50   ar
    46    50    51   ar
    47    18    19   ar
    48    19    20   ar
    49    20    16   ar
    50    14    10    1
    51    44    39   ar
    52    37    33   ar
    53    51    46   ar
    54     4     5    1
    55    27    30    1
@<TRIPOS>MOLECULE
*****
 51 55 0 0 0
SMALL
GASTEIGER

@<TRIPOS>ATOM
      1 C          62.3113   87.0647   11.1068 C.3     1  UNL1        0.0760
      2 C          62.3759   89.2080   12.5739 C.2     1  UNL1        0.2415
      3 O          60.9286   89.4593   12.2706 O.2     1  UNL1       -0.2733
      4 N          63.0673   88.0107   11.9920 N.am    1  UNL1       -0.3043
      5 H          64.0173   87.8457   12.1910 H       1  UNL1        0.1494
      6 N          65.0456   92.9250   11.2727 N.am    1  UNL1       -0.2565
      7 C          65.2667   93.3448    9.8498 C.3     1  UNL1        0.1168
      8 C          64.1843   91.7356   11.5787 C.2     1  UNL1        0.3085
      9 O          63.5442   90.9659   10.4615 O.2     1  UNL1       -0.2523
     10 N          63.9632   91.3158   13.0016 N.am    1  UNL1       -0.2464
     11 C          64.5345   91.9841   14.2170 C.3     1  UNL1        0.1540
     12 S          64.0563   91.2353   15.4256 S.3     1  UNL1       -0.1163
     13 C          63.1895   90.1042   14.9571 C.3     1  UNL1        0.0884
     14 C          63.1320   90.1539   13.4591 C.3     1  UNL1        0.1646
     15 C          65.6857   93.6946   12.3899 C.3     1  UNL1        0.1413
     16 C          68.5690   92.7258   14.8009 C.ar    1  UNL1        0.0875
     17 N          67.3915   93.5841   14.4448 N.ar    1  UNL1       -0.2453
     18 C          66.8600   93.1164   13.1224 C.ar    1  UNL1        0.0858
     19 C          67.7089   91.9690   12.6612 C.ar    1  UNL1        0.0530
     20 S          68.7651   91.7275   13.6985 S.2     1  UNL1       -0.0705
     21 C          70.1716   94.1048   16.3108 C.3     1  UNL1        0.0069
     22 C          69.4037   92.8447   16.0415 C.3     1  UNL1        0.0465
     23 C          69.4707   91.7035   17.0127 C.3     1  UNL1        0.0069
     24 C          61.9509   85.6968   11.6056 C.3     1  UNL1        0.0216
     25 C          62.2858   84.4869   10.7847 C.3     1  UNL1        0.0217
     26 C          63.5236   83.6951   11.0863 C.3     1  UNL1        0.0792
     27 N          64.4228   84.1091   12.2133 N.am    1  UNL1       -0.2720
     28 C          64.0451   83.7909   13.6297 C.2     1  UNL1        0.4019
     29 O          62.7685   83.0586   13.9191 O.2     1  UNL1       -0.2264
     30 H          65.2607   84.5898   12.0233 H       1  UNL1        0.1527
     31 O          64.9443   84.2050   14.7567 O.3     1  UNL1       -0.4291
     32 C          64.8523   85.5928   15.3184 C.3     1  UNL1        0.2447
     33 C          63.6567   85.9960   16.1295 C.ar    1  UNL1        0.0714
     34 C          62.4499   85.1480   16.4026 C.ar    1  UNL1        0.1053
     35 N          61.5053   85.9459   17.2519 N.ar    1  UNL1       -0.2350
     36 C          62.1283   87.2869   17.5036 C.ar    1  UNL1        0.1343
     37 S          63.4579   87.3179   16.8099 S.2     1  UNL1       -0.0652
     38 C          63.8623   82.4892   10.2610 C.3     1  UNL1        0.0460
     39 C          63.3673   81.1347   10.6738 C.ar    1  UNL1       -0.0205
     40 C          63.2039   80.0515    9.6491 C.ar    1  UNL1       -0.0042
     41 C          62.7090   78.6971   10.0620 C.ar    1  UNL1       -0.0003
     42 C          62.3775   78.4258   11.4995 C.ar    1  UNL1       -0.0000
     43 C          62.5408   79.5090   12.5242 C.ar    1  UNL1       -0.0003
     44 C          63.0358   80.8634   12.1113 C.ar    1  UNL1       -0.0042
     45 C          61.9156   87.4867    9.7228 C.3     1  UNL1        0.0459
     46 C          61.7942   86.4636    8.6326 C.ar    1  UNL1       -0.0205
     47 C          63.0140   85.7402    8.1437 C.ar    1  UNL1       -0.0042
     48 C          62.8925   84.7170    7.0536 C.ar    1  UNL1       -0.0003
     49 C          61.5513   84.4172    6.4524 C.ar    1  UNL1       -0.0000
     50 C          60.3316   85.1406    6.9413 C.ar    1  UNL1       -0.0003
     51 C          60.4531   86.1638    8.0314 C.ar    1  UNL1       -0.0042
@<TRIPOS>BOND
     1    21    22    1
     2    22    23    1
     3    22    16    1
     4    16    17   ar
     5    17    18   ar
     6    18    15    1
     7    15     6    1
     8     6     7    1
     9     6     8   am
    10     8     9    2
    11     8    10   am
    12    10    11    1
    13    11    12    1
    14    12    13    1
    15    13    14    1
    16    14     2    1
    17     2     3    2
    18     2     4   am
    19     4     1    1
    20     1    24    1
    21    24    25    1
    22    26    25    1
    23    26    38    1
    24    38    39    1
    25    39    40   ar
    26    40    41   ar
    27    41    42   ar
    28    42    43   ar
    29    43    44   ar
    30    26    27    1
    31    27    28   am
    32    28    29    2
    33    28    31    1
    34    31    32    1
    35    32    33    1
    36    33    34   ar
    37    34    35   ar
    38    35    36   ar
    39    36    37   ar
    40     1    45    1
    41    45    46    1
    42    46    47   ar
    43    47    48   ar
    44    48    49   ar
    45    49    50   ar
    46    50    51   ar
    47    18    19   ar
    48    19    20   ar
    49    20    16   ar
    50    14    10    1
    51    44    39   ar
    52    37    33   ar
    53    51    46   ar
    54     4     5    1
    55    27    30    1
@<TRIPOS>MOLECULE
*****
 51 55 0 0 0
SMALL
GASTEIGER

@<TRIPOS>ATOM
      1 C          62.8433   84.0887   11.1486 C.3     1  UNL1        0.0760
      2 C          63.8196   85.0440   13.3586 C.2     1  UNL1        0.2415
      3 O          64.9742   84.0915   13.2602 O.2     1  UNL1       -0.2733
      4 N          62.7541   85.0426   12.3027 N.am    1  UNL1       -0.3043
      5 H          61.9963   85.6677   12.3673 H       1  UNL1        0.1494
      6 N          63.4042   89.7812   13.2086 N.am    1  UNL1       -0.2565
      7 C          63.3399   90.5802   11.9408 C.3     1  UNL1        0.1168
      8 C          63.5356   88.2882   13.1484 C.2     1  UNL1        0.3085
      9 O          63.6028   87.5942   11.8201 O.2     1  UNL1       -0.2523
     10 N          63.5999   87.4891   14.4161 N.am    1  UNL1       -0.2464
     11 C          63.5450   88.0409   15.8099 C.3     1  UNL1        0.1540
     12 S          63.6415   86.8907   16.7679 S.3     1  UNL1       -0.1163
     13 C          63.7562   85.6281   15.9662 C.3     1  UNL1        0.0884
     14 C          63.7305   85.9979   14.5128 C.3     1  UNL1        0.1646
     15 C          63.3371   90.4751   14.5368 C.3     1  UNL1        0.1413
     16 C          66.7505   92.1868   15.2321 C.ar    1  UNL1        0.0875
     17 N          65.8579   91.3477   14.3667 N.ar    1  UNL1       -0.2453
     18 C          64.5284   91.2279   15.0508 C.ar    1  UNL1        0.0858
     19 C          64.5993   91.9929   16.3390 C.ar    1  UNL1        0.0530
     20 S          65.9726   92.5856   16.4512 S.2     1  UNL1       -0.0705
     21 C          68.8637   91.9787   13.7351 C.3     1  UNL1        0.0069
     22 C          68.1715   92.5614   14.9315 C.3     1  UNL1        0.0465
     23 C          68.9004   93.5187   15.8272 C.3     1  UNL1        0.0069
     24 C          62.2911   84.4780    9.8094 C.3     1  UNL1        0.0216
     25 C          62.4699   85.8786    9.3029 C.3     1  UNL1        0.0217
     26 C          61.3233   86.8447    9.3485 C.3     1  UNL1        0.0792
     27 N          60.9906   87.6713    8.1418 N.am    1  UNL1       -0.2720
     28 C          59.6208   87.5951    7.5350 C.2     1  UNL1        0.4019
     29 O          58.5839   86.6925    8.1349 O.2     1  UNL1       -0.2264
     30 H          61.6712   88.2637    7.7481 H       1  UNL1        0.1527
     31 O          59.2881   88.4217    6.3284 O.3     1  UNL1       -0.4291
     32 C          58.8546   89.8482    6.4927 C.3     1  UNL1        0.2447
     33 C          59.1564   90.8522    5.4199 C.ar    1  UNL1        0.0714
     34 C          58.1591   91.7433    4.7405 C.ar    1  UNL1        0.1053
     35 N          58.8948   92.5832    3.7388 N.ar    1  UNL1       -0.2350
     36 C          60.3467   92.2113    3.7992 C.ar    1  UNL1        0.1343
     37 S          60.5083   91.1415    4.8382 S.2     1  UNL1       -0.0652
     38 C          60.5094   86.9841   10.6008 C.3     1  UNL1        0.0460
     39 C          59.9999   88.3319   11.0179 C.ar    1  UNL1       -0.0205
     40 C          59.1337   88.4624   12.2356 C.ar    1  UNL1       -0.0042
     41 C          58.6243   89.8101   12.6527 C.ar    1  UNL1       -0.0003
     42 C          58.9811   91.0274   11.8522 C.ar    1  UNL1       -0.0000
     43 C          59.8473   90.8970   10.6346 C.ar    1  UNL1       -0.0003
     44 C          60.3567   89.5493   10.2174 C.ar    1  UNL1       -0.0042
     45 C          63.4846   82.7453   11.3336 C.3     1  UNL1        0.0459
     46 C          62.8351   81.7190   12.2139 C.ar    1  UNL1       -0.0205
     47 C          62.9899   80.2594   11.9044 C.ar    1  UNL1       -0.0042
     48 C          62.3403   79.2332   12.7847 C.ar    1  UNL1       -0.0003
     49 C          61.5361   79.6665   13.9744 C.ar    1  UNL1       -0.0000
     50 C          61.3814   81.1260   14.2839 C.ar    1  UNL1       -0.0003
     51 C          62.0309   82.1523   13.4036 C.ar    1  UNL1       -0.0042
@<TRIPOS>BOND
     1    21    22    1
     2    22    23    1
     3    22    16    1
     4    16    17   ar
     5    17    18   ar
     6    18    15    1
     7    15     6    1
     8     6     7    1
     9     6     8   am
    10     8     9    2
    11     8    10   am
    12    10    11    1
    13    11    12    1
    14    12    13    1
    15    13    14    1
    16    14     2    1
    17     2     3    2
    18     2     4   am
    19     4     1    1
    20     1    24    1
    21    24    25    1
    22    26    25    1
    23    26    38    1
    24    38    39    1
    25    39    40   ar
    26    40    41   ar
    27    41    42   ar
    28    42    43   ar
    29    43    44   ar
    30    26    27    1
    31    27    28   am
    32    28    29    2
    33    28    31    1
    34    31    32    1
    35    32    33    1
    36    33    34   ar
    37    34    35   ar
    38    35    36   ar
    39    36    37   ar
    40     1    45    1
    41    45    46    1
    42    46    47   ar
    43    47    48   ar
    44    48    49   ar
    45    49    50   ar
    46    50    51   ar
    47    18    19   ar
    48    19    20   ar
    49    20    16   ar
    50    14    10    1
    51    44    39   ar
    52    37    33   ar
    53    51    46   ar
    54     4     5    1
    55    27    30    1
@<TRIPOS>MOLECULE
*****
 51 55 0 0 0
SMALL
GASTEIGER

@<TRIPOS>ATOM
      1 C          62.3480   86.8606   11.5131 C.3     1  UNL1        0.0760
      2 C          62.4310   89.1540   12.7310 C.2     1  UNL1        0.2415
      3 O          61.0054   89.4121   12.3422 O.2     1  UNL1       -0.2733
      4 N          63.1023   87.8782   12.3165 N.am    1  UNL1       -0.3043
      5 H          64.0380   87.7089   12.5717 H       1  UNL1        0.1494
      6 N          65.0558   92.7828   11.1252 N.am    1  UNL1       -0.2565
      7 C          65.2618   93.0938    9.6724 C.3     1  UNL1        0.1168
      8 C          64.2081   91.6131   11.5290 C.2     1  UNL1        0.3085
      9 O          63.5662   90.7543   10.4798 O.2     1  UNL1       -0.2523
     10 N          64.0021   91.3020   12.9818 N.am    1  UNL1       -0.2464
     11 C          64.5768   92.0666   14.1373 C.3     1  UNL1        0.1540
     12 S          64.1152   91.4089   15.4039 S.3     1  UNL1       -0.1163
     13 C          63.2551   90.2378   15.0313 C.3     1  UNL1        0.0884
     14 C          63.1853   90.1717   13.5344 C.3     1  UNL1        0.1646
     15 C          65.6977   93.6415   12.1744 C.3     1  UNL1        0.1413
     16 C          68.4657   92.7982   14.7612 C.ar    1  UNL1        0.0875
     17 N          67.2950   93.6244   14.3175 N.ar    1  UNL1       -0.2453
     18 C          66.8410   93.1068   12.9848 C.ar    1  UNL1        0.0858
     19 C          67.7311   91.9609   12.6049 C.ar    1  UNL1        0.0530
     20 S          68.7352   91.7700   13.7028 S.2     1  UNL1       -0.0705
     21 C          69.3703   91.8192   16.9913 C.3     1  UNL1        0.0069
     22 C          69.2323   92.9699   16.0391 C.3     1  UNL1        0.0465
     23 C          69.8608   94.2924   16.3647 C.3     1  UNL1        0.0069
     24 C          62.3435   85.4223   11.9389 C.3     1  UNL1        0.0216
     25 C          63.6147   84.6267   11.9070 C.3     1  UNL1        0.0217
     26 C          64.2269   84.1396   13.1869 C.3     1  UNL1        0.0792
     27 N          64.2136   82.6760   13.5152 N.am    1  UNL1       -0.2720
     28 C          62.9578   82.0331   14.0250 C.2     1  UNL1        0.4019
     29 O          61.7155   82.8539   14.2066 O.2     1  UNL1       -0.2264
     30 H          65.0290   82.1373   13.3960 H       1  UNL1        0.1527
     31 O          62.9445   80.5696   14.3533 O.3     1  UNL1       -0.4291
     32 C          62.3337   79.5913   13.3942 C.3     1  UNL1        0.2447
     33 C          62.6103   79.7094   11.9247 C.ar    1  UNL1        0.0714
     34 C          62.9284   80.9757   11.1863 C.ar    1  UNL1        0.1053
     35 N          63.1321   80.6308    9.7408 N.ar    1  UNL1       -0.2350
     36 C          62.9399   79.1513    9.5858 C.ar    1  UNL1        0.1343
     37 S          62.6174   78.5818   10.9355 S.2     1  UNL1       -0.0652
     38 C          64.8525   85.1160   14.1384 C.3     1  UNL1        0.0460
     39 C          64.0371   85.7074   15.2499 C.ar    1  UNL1       -0.0205
     40 C          63.0907   84.8423   16.0282 C.ar    1  UNL1       -0.0042
     41 C          62.2754   85.4337   17.1396 C.ar    1  UNL1       -0.0003
     42 C          62.4065   86.8904   17.4728 C.ar    1  UNL1       -0.0000
     43 C          63.3528   87.7556   16.6945 C.ar    1  UNL1       -0.0003
     44 C          64.1681   87.1641   15.5830 C.ar    1  UNL1       -0.0042
     45 C          61.5983   87.2812   10.2838 C.3     1  UNL1        0.0459
     46 C          61.6149   86.4124    9.0612 C.ar    1  UNL1       -0.0205
     47 C          62.8909   85.7548    8.6257 C.ar    1  UNL1       -0.0042
     48 C          62.9075   84.8859    7.4031 C.ar    1  UNL1       -0.0003
     49 C          61.6482   84.6747    6.6159 C.ar    1  UNL1       -0.0000
     50 C          60.3723   85.3323    7.0514 C.ar    1  UNL1       -0.0003
     51 C          60.3557   86.2011    8.2741 C.ar    1  UNL1       -0.0042
@<TRIPOS>BOND
     1    21    22    1
     2    22    23    1
     3    22    16    1
     4    16    17   ar
     5    17    18   ar
     6    18    15    1
     7    15     6    1
     8     6     7    1
     9     6     8   am
    10     8     9    2
    11     8    10   am
    12    10    11    1
    13    11    12    1
    14    12    13    1
    15    13    14    1
    16    14     2    1
    17     2     3    2
    18     2     4   am
    19     4     1    1
    20     1    24    1
    21    24    25    1
    22    26    25    1
    23    26    38    1
    24    38    39    1
    25    39    40   ar
    26    40    41   ar
    27    41    42   ar
    28    42    43   ar
    29    43    44   ar
    30    26    27    1
    31    27    28   am
    32    28    29    2
    33    28    31    1
    34    31    32    1
    35    32    33    1
    36    33    34   ar
    37    34    35   ar
    38    35    36   ar
    39    36    37   ar
    40     1    45    1
    41    45    46    1
    42    46    47   ar
    43    47    48   ar
    44    48    49   ar
    45    49    50   ar
    46    50    51   ar
    47    18    19   ar
    48    19    20   ar
    49    20    16   ar
    50    14    10    1
    51    44    39   ar
    52    37    33   ar
    53    51    46   ar
    54     4     5    1
    55    27    30    1
