@<TRIPOS>MOLECULE
*****
 34 38 0 0 0
SMALL
GASTEIGER

@<TRIPOS>ATOM
      1 C          63.0832   92.7233    1.1349 C.2     1  UNL1        0.0033
      2 C          61.6642   92.7449    1.6209 C.2     1  UNL1        0.0641
      3 C          60.6151   93.4796    0.8400 C.3     1  UNL1        0.0383
      4 C          59.1962   93.5012    1.3260 C.3     1  UNL1        0.0557
      5 C          58.8263   92.7881    2.5928 C.3     1  UNL1        0.2028
      6 N          59.8754   92.0534    3.3736 N.pl3   1  UNL1       -0.1873
      7 C          61.2943   92.0318    2.8877 C.2     1  UNL1        0.3653
      8 N          62.3434   91.2972    3.6685 N.2     1  UNL1        0.1549
      9 O          61.9735   90.5841    4.9353 O.2     1  UNL1       -0.2751
     10 C          60.5545   90.6057    5.4212 C.3     1  UNL1        0.2886
     11 C          59.5055   91.3404    4.6404 C.3     1  UNL1        0.2096
     12 C          58.0866   91.3620    5.1263 C.3     1  UNL1        0.0552
     13 C          60.1847   89.8927    6.6880 C.ar    1  UNL1        0.0309
     14 C          59.4178   88.6050    6.6274 C.ar    1  UNL1        0.0293
     15 C          59.0479   87.8920    7.8942 C.ar    1  UNL1        0.1422
     16 F          58.2810   86.6043    7.8335 F       1  UNL1       -0.2041
     17 C          59.4449   88.4666    9.2216 C.ar    1  UNL1        0.0592
     18 C          60.2119   89.7543    9.2823 C.ar    1  UNL1        0.1422
     19 F          60.6089   90.3289   10.6097 F       1  UNL1       -0.2041
     20 C          60.5817   90.4674    8.0155 C.ar    1  UNL1        0.0293
     21 C          63.2598   93.6888   -2.7104 C.ar    1  UNL1        0.1547
     22 C          62.8899   92.9758   -1.4436 C.ar    1  UNL1        0.0384
     23 C          63.4530   93.4363   -0.1318 C.ar    1  UNL1        0.0030
     24 C          64.3861   94.6100   -0.0868 C.ar    1  UNL1        0.0017
     25 C          64.7560   95.3230   -1.3536 C.ar    1  UNL1        0.0206
     26 C          64.1928   94.8624   -2.6654 C.ar    1  UNL1        0.0994
     27 N          64.5627   95.5755   -3.9322 N.ar    1  UNL1       -0.2839
     28 C          63.6159   96.2900   -4.8505 C.ar    1  UNL1        0.1826
     29 N          64.4124   96.8553   -5.9889 N.ar    1  UNL1       -0.2280
     30 C          65.8513   96.4902   -5.7743 C.ar    1  UNL1        0.0786
     31 C          66.9964   96.8524   -6.6730 C.3     1  UNL1        0.0538
     32 C          65.9442   95.6992   -4.5032 C.ar    1  UNL1        0.0963
     33 C          63.5846   92.5502   -5.0230 C.3     1  UNL1        0.2525
     34 O          62.6966   93.2282   -4.0222 O.3     1  UNL1       -0.4700
@<TRIPOS>BOND
     1    33    34    1
     2    34    21    1
     3    21    22   ar
     4    22    23   ar
     5    23     1    1
     6     1     2    2
     7     2     3    1
     8     3     4    1
     9     4     5    1
    10     5     6    1
    11     6     7    1
    12     7     8    2
    13     8     9    1
    14     9    10    1
    15    10    13    1
    16    13    14   ar
    17    14    15   ar
    18    15    16    1
    19    15    17   ar
    20    17    18   ar
    21    18    19    1
    22    18    20   ar
    23    10    11    1
    24    11    12    1
    25    23    24   ar
    26    24    25   ar
    27    25    26   ar
    28    26    27    1
    29    27    28   ar
    30    28    29   ar
    31    29    30   ar
    32    30    31    1
    33    30    32   ar
    34    26    21   ar
    35    32    27   ar
    36     7     2    1
    37    20    13   ar
    38    11     6    1
@<TRIPOS>MOLECULE
*****
 34 38 0 0 0
SMALL
GASTEIGER

@<TRIPOS>ATOM
      1 C          62.9002   92.6567    1.3487 C.2     1  UNL1        0.0033
      2 C          61.4787   92.6514    1.8278 C.2     1  UNL1        0.0641
      3 C          60.4206   93.3704    1.0448 C.3     1  UNL1        0.0383
      4 C          58.9993   93.3651    1.5240 C.3     1  UNL1        0.0557
      5 C          58.6360   92.6406    2.7862 C.3     1  UNL1        0.2028
      6 N          59.6942   91.9215    3.5692 N.pl3   1  UNL1       -0.1873
      7 C          61.1155   91.9269    3.0901 C.2     1  UNL1        0.3653
      8 N          62.1737   91.2078    3.8731 N.2     1  UNL1        0.1549
      9 O          61.8105   90.4833    5.1353 O.2     1  UNL1       -0.2751
     10 C          60.3891   90.4780    5.6145 C.3     1  UNL1        0.2886
     11 C          59.3309   91.1970    4.8315 C.3     1  UNL1        0.2096
     12 C          57.9096   91.1917    5.3106 C.3     1  UNL1        0.0552
     13 C          60.0258   89.7535    6.8767 C.ar    1  UNL1        0.0309
     14 C          60.4086   90.3285    8.2082 C.ar    1  UNL1        0.0293
     15 C          60.0454   89.6040    9.4704 C.ar    1  UNL1        0.1422
     16 F          60.4281   90.1790   10.8019 F       1  UNL1       -0.2041
     17 C          59.2994   88.3046    9.4012 C.ar    1  UNL1        0.0592
     18 C          58.9166   87.7295    8.0697 C.ar    1  UNL1        0.1422
     19 F          58.1706   86.4300    8.0005 F       1  UNL1       -0.2041
     20 C          59.2798   88.4539    6.8075 C.ar    1  UNL1        0.0293
     21 C          64.3142   95.4369   -1.1052 C.ar    1  UNL1        0.1547
     22 C          63.9509   94.7124    0.1571 C.ar    1  UNL1        0.0384
     23 C          63.2634   93.3812    0.0864 C.ar    1  UNL1        0.0030
     24 C          62.9391   92.7743   -1.2465 C.ar    1  UNL1        0.0017
     25 C          63.3023   93.4988   -2.5087 C.ar    1  UNL1        0.0206
     26 C          63.9899   94.8301   -2.4380 C.ar    1  UNL1        0.0994
     27 N          64.3531   95.5546   -3.7002 N.ar    1  UNL1       -0.2839
     28 C          65.6406   96.2783   -3.9622 C.ar    1  UNL1        0.1826
     29 N          65.5758   96.8535   -5.3460 N.ar    1  UNL1       -0.2280
     30 C          64.2483   96.4853   -5.9393 C.ar    1  UNL1        0.0786
     31 C          63.7618   96.8549   -7.3093 C.3     1  UNL1        0.0538
     32 C          63.4926   95.6825   -4.9222 C.ar    1  UNL1        0.0963
     33 C          66.4195   96.8555   -0.5526 C.3     1  UNL1        0.2525
     34 O          65.0017   96.7682   -1.0345 O.3     1  UNL1       -0.4700
@<TRIPOS>BOND
     1    33    34    1
     2    34    21    1
     3    21    22   ar
     4    22    23   ar
     5    23     1    1
     6     1     2    2
     7     2     3    1
     8     3     4    1
     9     4     5    1
    10     5     6    1
    11     6     7    1
    12     7     8    2
    13     8     9    1
    14     9    10    1
    15    10    13    1
    16    13    14   ar
    17    14    15   ar
    18    15    16    1
    19    15    17   ar
    20    17    18   ar
    21    18    19    1
    22    18    20   ar
    23    10    11    1
    24    11    12    1
    25    23    24   ar
    26    24    25   ar
    27    25    26   ar
    28    26    27    1
    29    27    28   ar
    30    28    29   ar
    31    29    30   ar
    32    30    31    1
    33    30    32   ar
    34    26    21   ar
    35    32    27   ar
    36     7     2    1
    37    20    13   ar
    38    11     6    1
@<TRIPOS>MOLECULE
*****
 34 38 0 0 0
SMALL
GASTEIGER

@<TRIPOS>ATOM
      1 C          59.5518   91.0629    5.0175 C.2     1  UNL1        0.0033
      2 C          60.6509   91.4108    4.0577 C.2     1  UNL1        0.0641
      3 C          62.0426   90.9046    4.2957 C.3     1  UNL1        0.0383
      4 C          63.1416   91.2525    3.3360 C.3     1  UNL1        0.0557
      5 C          62.8488   92.1067    2.1382 C.3     1  UNL1        0.2028
      6 N          61.4571   92.6129    1.9001 N.pl3   1  UNL1       -0.1873
      7 C          60.3581   92.2650    2.8599 C.2     1  UNL1        0.3653
      8 N          58.9663   92.7712    2.6219 N.2     1  UNL1        0.1549
      9 O          58.6735   93.6254    1.4241 O.2     1  UNL1       -0.2751
     10 C          59.7725   93.9733    0.4643 C.3     1  UNL1        0.2886
     11 C          61.1643   93.4670    0.7024 C.3     1  UNL1        0.2096
     12 C          62.2632   93.8150   -0.2574 C.3     1  UNL1        0.0552
     13 C          59.4797   94.8274   -0.7334 C.ar    1  UNL1        0.0309
     14 C          58.0594   95.0953   -1.1344 C.ar    1  UNL1        0.0293
     15 C          57.7666   95.9495   -2.3322 C.ar    1  UNL1        0.1422
     16 F          56.3463   96.2174   -2.7332 F       1  UNL1       -0.2041
     17 C          58.8941   96.5357   -3.1290 C.ar    1  UNL1        0.0592
     18 C          60.3146   96.2679   -2.7280 C.ar    1  UNL1        0.1422
     19 F          61.4421   96.8541   -3.5248 F       1  UNL1       -0.2041
     20 C          60.6073   95.4137   -1.5302 C.ar    1  UNL1        0.0293
     21 C          59.6924   87.9224    7.4398 C.ar    1  UNL1        0.1547
     22 C          59.3996   88.7765    6.2420 C.ar    1  UNL1        0.0384
     23 C          59.8446   90.2087    6.2153 C.ar    1  UNL1        0.0030
     24 C          60.5825   90.7868    7.3864 C.ar    1  UNL1        0.0017
     25 C          60.8753   89.9327    8.5841 C.ar    1  UNL1        0.0206
     26 C          60.4302   88.5004    8.6108 C.ar    1  UNL1        0.0994
     27 N          60.7230   87.6462    9.8086 N.ar    1  UNL1       -0.2839
     28 C          60.1410   87.8214   11.1799 C.ar    1  UNL1        0.1826
     29 N          60.7075   86.7504   12.0642 N.ar    1  UNL1       -0.2280
     30 C          61.6397   85.9133   11.2394 C.ar    1  UNL1        0.0786
     31 C          62.4245   84.7302   11.7236 C.3     1  UNL1        0.0538
     32 C          61.6493   86.4670    9.8454 C.ar    1  UNL1        0.0963
     33 C          60.1940   85.4027    7.0528 C.3     1  UNL1        0.2525
     34 O          59.2473   86.4901    7.4664 O.3     1  UNL1       -0.4700
@<TRIPOS>BOND
     1    33    34    1
     2    34    21    1
     3    21    22   ar
     4    22    23   ar
     5    23     1    1
     6     1     2    2
     7     2     3    1
     8     3     4    1
     9     4     5    1
    10     5     6    1
    11     6     7    1
    12     7     8    2
    13     8     9    1
    14     9    10    1
    15    10    13    1
    16    13    14   ar
    17    14    15   ar
    18    15    16    1
    19    15    17   ar
    20    17    18   ar
    21    18    19    1
    22    18    20   ar
    23    10    11    1
    24    11    12    1
    25    23    24   ar
    26    24    25   ar
    27    25    26   ar
    28    26    27    1
    29    27    28   ar
    30    28    29   ar
    31    29    30   ar
    32    30    31    1
    33    30    32   ar
    34    26    21   ar
    35    32    27   ar
    36     7     2    1
    37    20    13   ar
    38    11     6    1
@<TRIPOS>MOLECULE
*****
 34 38 0 0 0
SMALL
GASTEIGER

@<TRIPOS>ATOM
      1 C          63.6260   86.6093   13.5555 C.2     1  UNL1        0.0033
      2 C          63.1988   87.4922   12.4207 C.2     1  UNL1        0.0641
      3 C          62.2389   86.9768   11.3897 C.3     1  UNL1        0.0383
      4 C          61.8117   87.8597   10.2549 C.3     1  UNL1        0.0557
      5 C          62.3443   89.2581   10.1511 C.3     1  UNL1        0.2028
      6 N          63.3042   89.7736   11.1820 N.pl3   1  UNL1       -0.1873
      7 C          63.7314   88.8906   12.3168 C.2     1  UNL1        0.3653
      8 N          64.6913   89.4060   13.3479 N.2     1  UNL1        0.1549
      9 O          65.2240   90.8044   13.2440 O.2     1  UNL1       -0.2751
     10 C          64.7967   91.6874   12.1092 C.3     1  UNL1        0.2886
     11 C          63.8368   91.1720   11.0782 C.3     1  UNL1        0.2096
     12 C          63.4096   92.0549    9.9434 C.3     1  UNL1        0.0552
     13 C          65.3293   93.0858   12.0053 C.ar    1  UNL1        0.0309
     14 C          65.9805   93.7305   13.1929 C.ar    1  UNL1        0.0293
     15 C          66.5131   95.1289   13.0890 C.ar    1  UNL1        0.1422
     16 F          67.1643   95.7735   14.2766 F       1  UNL1       -0.2041
     17 C          66.3946   95.8826   11.7976 C.ar    1  UNL1        0.0592
     18 C          65.7434   95.2380   10.6100 C.ar    1  UNL1        0.1422
     19 F          65.6248   95.9917    9.3186 F       1  UNL1       -0.2041
     20 C          65.2107   93.8396   10.7138 C.ar    1  UNL1        0.0293
     21 C          62.6445   82.8886   12.5845 C.ar    1  UNL1        0.1547
     22 C          63.1771   84.2870   12.4807 C.ar    1  UNL1        0.0384
     23 C          63.0934   85.2109   13.6594 C.ar    1  UNL1        0.0030
     24 C          62.4770   84.7364   14.9420 C.ar    1  UNL1        0.0017
     25 C          61.9444   83.3380   15.0458 C.ar    1  UNL1        0.0206
     26 C          62.0281   82.4141   13.8670 C.ar    1  UNL1        0.0994
     27 N          61.4955   81.0157   13.9709 N.ar    1  UNL1       -0.2839
     28 C          62.2944   79.7547   13.8240 C.ar    1  UNL1        0.1826
     29 N          61.3631   78.5924   14.0021 N.ar    1  UNL1       -0.2280
     30 C          59.9886   79.1350   14.2592 C.ar    1  UNL1        0.0786
     31 C          58.7497   78.3227   14.4943 C.3     1  UNL1        0.0538
     32 C          60.0704   80.6327   14.2399 C.ar    1  UNL1        0.0963
     33 C          63.8496   82.1067   10.4197 C.3     1  UNL1        0.2525
     34 O          62.7282   81.9646   11.4057 O.3     1  UNL1       -0.4700
@<TRIPOS>BOND
     1    33    34    1
     2    34    21    1
     3    21    22   ar
     4    22    23   ar
     5    23     1    1
     6     1     2    2
     7     2     3    1
     8     3     4    1
     9     4     5    1
    10     5     6    1
    11     6     7    1
    12     7     8    2
    13     8     9    1
    14     9    10    1
    15    10    13    1
    16    13    14   ar
    17    14    15   ar
    18    15    16    1
    19    15    17   ar
    20    17    18   ar
    21    18    19    1
    22    18    20   ar
    23    10    11    1
    24    11    12    1
    25    23    24   ar
    26    24    25   ar
    27    25    26   ar
    28    26    27    1
    29    27    28   ar
    30    28    29   ar
    31    29    30   ar
    32    30    31    1
    33    30    32   ar
    34    26    21   ar
    35    32    27   ar
    36     7     2    1
    37    20    13   ar
    38    11     6    1
@<TRIPOS>MOLECULE
*****
 34 38 0 0 0
SMALL
GASTEIGER

@<TRIPOS>ATOM
      1 C          60.4921   88.8347    7.1816 C.2     1  UNL1        0.0033
      2 C          61.2880   89.1312    8.4180 C.2     1  UNL1        0.0641
      3 C          61.8776   90.4954    8.6212 C.3     1  UNL1        0.0383
      4 C          62.6734   90.7919    9.8576 C.3     1  UNL1        0.0557
      5 C          62.8797   89.7242   10.8908 C.3     1  UNL1        0.2028
      6 N          62.2901   88.3600   10.6876 N.pl3   1  UNL1       -0.1873
      7 C          61.4942   88.0635    9.4512 C.2     1  UNL1        0.3653
      8 N          60.9046   86.6993    9.2479 N.2     1  UNL1        0.1549
      9 O          61.1109   85.6316   10.2811 O.2     1  UNL1       -0.2751
     10 C          61.9068   85.9281   11.5175 C.3     1  UNL1        0.2886
     11 C          62.4963   87.2923   11.7207 C.3     1  UNL1        0.2096
     12 C          63.2922   87.5888   12.9571 C.3     1  UNL1        0.0552
     13 C          62.1130   84.8604   12.5507 C.ar    1  UNL1        0.0309
     14 C          62.0735   85.2100   14.0088 C.ar    1  UNL1        0.0293
     15 C          62.2798   84.1423   15.0420 C.ar    1  UNL1        0.1422
     16 F          62.2402   84.4920   16.5001 F       1  UNL1       -0.2041
     17 C          62.5256   82.7250   14.6170 C.ar    1  UNL1        0.0592
     18 C          62.5651   82.3752   13.1589 C.ar    1  UNL1        0.1422
     19 F          62.8109   80.9579   12.7339 F       1  UNL1       -0.2041
     20 C          62.3589   83.4430   12.1257 C.ar    1  UNL1        0.0293
     21 C          61.2378   91.4518    4.2929 C.ar    1  UNL1        0.1547
     22 C          61.4441   90.3841    5.3261 C.ar    1  UNL1        0.0384
     23 C          60.2858   89.9024    6.1484 C.ar    1  UNL1        0.0030
     24 C          58.9212   90.4885    5.9376 C.ar    1  UNL1        0.0017
     25 C          58.7149   91.5562    4.9044 C.ar    1  UNL1        0.0206
     26 C          59.8733   92.0378    4.0821 C.ar    1  UNL1        0.0994
     27 N          59.6670   93.1056    3.0489 N.ar    1  UNL1       -0.2839
     28 C          59.9430   94.5692    3.2263 C.ar    1  UNL1        0.1826
     29 N          59.5951   95.2653    1.9440 N.ar    1  UNL1       -0.2280
     30 C          59.1041   94.2319    0.9740 C.ar    1  UNL1        0.0786
     31 C          58.6486   94.4882   -0.4320 C.3     1  UNL1        0.0538
     32 C          59.1485   92.8971    1.6569 C.ar    1  UNL1        0.0963
     33 C          63.5063   90.9899    3.1134 C.3     1  UNL1        0.2525
     34 O          62.3962   91.9335    3.4705 O.3     1  UNL1       -0.4700
@<TRIPOS>BOND
     1    33    34    1
     2    34    21    1
     3    21    22   ar
     4    22    23   ar
     5    23     1    1
     6     1     2    2
     7     2     3    1
     8     3     4    1
     9     4     5    1
    10     5     6    1
    11     6     7    1
    12     7     8    2
    13     8     9    1
    14     9    10    1
    15    10    13    1
    16    13    14   ar
    17    14    15   ar
    18    15    16    1
    19    15    17   ar
    20    17    18   ar
    21    18    19    1
    22    18    20   ar
    23    10    11    1
    24    11    12    1
    25    23    24   ar
    26    24    25   ar
    27    25    26   ar
    28    26    27    1
    29    27    28   ar
    30    28    29   ar
    31    29    30   ar
    32    30    31    1
    33    30    32   ar
    34    26    21   ar
    35    32    27   ar
    36     7     2    1
    37    20    13   ar
    38    11     6    1
@<TRIPOS>MOLECULE
*****
 34 38 0 0 0
SMALL
GASTEIGER

@<TRIPOS>ATOM
      1 C          60.5305   88.7782    7.1940 C.2     1  UNL1        0.0033
      2 C          61.3096   89.0793    8.4400 C.2     1  UNL1        0.0641
      3 C          61.8769   90.4508    8.6568 C.3     1  UNL1        0.0383
      4 C          62.6560   90.7518    9.9027 C.3     1  UNL1        0.0557
      5 C          62.8678   89.6813   10.9319 C.3     1  UNL1        0.2028
      6 N          62.3005   88.3097   10.7151 N.pl3   1  UNL1       -0.1873
      7 C          61.5214   88.0087    9.4692 C.2     1  UNL1        0.3653
      8 N          60.9541   86.6371    9.2523 N.2     1  UNL1        0.1549
      9 O          61.1658   85.5666   10.2815 O.2     1  UNL1       -0.2751
     10 C          61.9450   85.8677   11.5274 C.3     1  UNL1        0.2886
     11 C          62.5123   87.2392   11.7442 C.3     1  UNL1        0.2096
     12 C          63.2914   87.5402   12.9902 C.3     1  UNL1        0.0552
     13 C          62.1568   84.7972   12.5566 C.ar    1  UNL1        0.0309
     14 C          62.3982   83.3806   12.1265 C.ar    1  UNL1        0.0293
     15 C          62.6100   82.3101   13.1557 C.ar    1  UNL1        0.1422
     16 F          62.8515   80.8935   12.7256 F       1  UNL1       -0.2041
     17 C          62.5803   82.6561   14.6149 C.ar    1  UNL1        0.0592
     18 C          62.3388   84.0727   15.0450 C.ar    1  UNL1        0.1422
     19 F          62.3091   84.4188   16.5042 F       1  UNL1       -0.2041
     20 C          62.1270   85.1433   14.0159 C.ar    1  UNL1        0.0293
     21 C          58.7289   91.4554    4.8839 C.ar    1  UNL1        0.1547
     22 C          58.9407   90.3849    5.9130 C.ar    1  UNL1        0.0384
     23 C          60.3187   89.8487    6.1649 C.ar    1  UNL1        0.0030
     24 C          61.4851   90.3831    5.3876 C.ar    1  UNL1        0.0017
     25 C          61.2733   91.4536    4.3585 C.ar    1  UNL1        0.0206
     26 C          59.8952   91.9898    4.1066 C.ar    1  UNL1        0.0994
     27 N          59.6834   93.0603    3.0775 N.ar    1  UNL1       -0.2839
     28 C          59.9518   94.5247    3.2604 C.ar    1  UNL1        0.1826
     29 N          59.6003   95.2238    1.9807 N.ar    1  UNL1       -0.2280
     30 C          59.1146   94.1915    1.0068 C.ar    1  UNL1        0.0786
     31 C          58.6578   94.4508   -0.3982 C.3     1  UNL1        0.0538
     32 C          59.1660   92.8544    1.6847 C.ar    1  UNL1        0.0963
     33 C          56.1497   91.2158    5.0857 C.3     1  UNL1        0.2525
     34 O          57.3508   91.9915    4.6321 O.3     1  UNL1       -0.4700
@<TRIPOS>BOND
     1    33    34    1
     2    34    21    1
     3    21    22   ar
     4    22    23   ar
     5    23     1    1
     6     1     2    2
     7     2     3    1
     8     3     4    1
     9     4     5    1
    10     5     6    1
    11     6     7    1
    12     7     8    2
    13     8     9    1
    14     9    10    1
    15    10    13    1
    16    13    14   ar
    17    14    15   ar
    18    15    16    1
    19    15    17   ar
    20    17    18   ar
    21    18    19    1
    22    18    20   ar
    23    10    11    1
    24    11    12    1
    25    23    24   ar
    26    24    25   ar
    27    25    26   ar
    28    26    27    1
    29    27    28   ar
    30    28    29   ar
    31    29    30   ar
    32    30    31    1
    33    30    32   ar
    34    26    21   ar
    35    32    27   ar
    36     7     2    1
    37    20    13   ar
    38    11     6    1
