@<TRIPOS>MOLECULE
*****
 32 35 0 0 0
SMALL
GASTEIGER

@<TRIPOS>ATOM
      1 C          59.9657   92.6641    2.4638 C.2     1  UNL1        0.2532
      2 O          61.3887   92.3450    2.8148 O.2     1  UNL1       -0.2695
      3 N          58.8480   92.1468    3.3198 N.am    1  UNL1       -0.2987
      4 H          57.9140   92.3562    3.0894 H       1  UNL1        0.1498
      5 C          58.0361   95.7241   -4.5031 C.3     1  UNL1        0.0537
      6 C          58.4814   95.6184   -3.0746 C.ar    1  UNL1        0.0771
      7 N          58.8436   96.8560   -2.3084 N.ar    1  UNL1       -0.1522
      8 N          59.2889   96.7503   -0.8799 N.ar    1  UNL1       -0.1416
      9 C          59.3721   95.4070   -0.2177 C.ar    1  UNL1        0.1333
     10 S          59.7742   94.9938    1.1671 S.2     1  UNL1       -0.0604
     11 C          59.6606   93.5008    1.2567 C.ar    1  UNL1        0.0971
     12 C          59.1882   92.9912   -0.0727 C.ar    1  UNL1        0.0538
     13 N          58.9381   91.5557   -0.4285 N.pl3   1  UNL1       -0.3564
     14 C          59.0100   94.1694   -0.9839 C.ar    1  UNL1        0.0363
     15 C          58.5646   94.2751   -2.4124 C.ar    1  UNL1       -0.0033
     16 C          58.2025   93.0374   -3.1786 C.3     1  UNL1        0.0324
     17 H          59.0846   90.8497    0.2419 H       1  UNL1        0.1424
     18 H          58.6275   91.3195   -1.3323 H       1  UNL1        0.1424
     19 C          59.1531   91.3102    4.5268 C.3     1  UNL1        0.1113
     20 C          60.4062   90.8017    5.1756 C.3     1  UNL1        0.1121
     21 N          59.5847   90.1271    6.2338 N.pl3   1  UNL1       -0.3029
     22 C          58.3315   90.6356    5.5851 C.3     1  UNL1        0.1121
     23 C          59.8898   89.2905    7.4410 C.ar    1  UNL1        0.0674
     24 C          59.6057   87.8178    7.4241 C.ar    1  UNL1        0.0176
     25 C          59.9108   86.9812    8.6311 C.ar    1  UNL1        0.0244
     26 C          60.5001   87.6173    9.8551 C.ar    1  UNL1        0.1527
     27 N          60.7843   89.0901    9.8720 N.ar    1  UNL1       -0.2386
     28 C          60.4791   89.9267    8.6649 C.ar    1  UNL1        0.1132
     29 C          60.8053   86.7808   11.0621 C.3     1  UNL1        0.4348
     30 F          61.1104   85.9442   12.2691 F       1  UNL1       -0.1644
     31 F          61.4101   85.7290   10.1802 F       1  UNL1       -0.1644
     32 F          60.2004   87.8325   11.9440 F       1  UNL1       -0.1644
@<TRIPOS>BOND
     1     5     6    1
     2     6     7   ar
     3     7     8   ar
     4     8     9   ar
     5     9    10   ar
     6    10    11   ar
     7    11     1    1
     8     1     2    2
     9     1     3   am
    10     3    19    1
    11    19    20    1
    12    20    21    1
    13    21    23    1
    14    23    24   ar
    15    24    25   ar
    16    25    26   ar
    17    26    29    1
    18    29    30    1
    19    29    31    1
    20    29    32    1
    21    26    27   ar
    22    27    28   ar
    23    21    22    1
    24    11    12   ar
    25    12    13    1
    26    12    14   ar
    27    14    15   ar
    28    15    16    1
    29    15     6   ar
    30    14     9   ar
    31    22    19    1
    32    28    23   ar
    33     3     4    1
    34    13    17    1
    35    13    18    1
@<TRIPOS>MOLECULE
*****
 32 35 0 0 0
SMALL
GASTEIGER

@<TRIPOS>ATOM
      1 C          60.1619   92.7711    1.9991 C.2     1  UNL1        0.2532
      2 O          61.5095   92.1487    2.2148 O.2     1  UNL1       -0.2695
      3 N          59.0568   92.5270    2.9835 N.am    1  UNL1       -0.2987
      4 H          58.1723   92.9355    2.8420 H       1  UNL1        0.1498
      5 C          59.9546   96.4554   -4.9296 C.3     1  UNL1        0.0537
      6 C          59.6453   96.0884   -3.5084 C.ar    1  UNL1        0.0771
      7 N          58.6067   96.8553   -2.7448 N.ar    1  UNL1       -0.1522
      8 N          58.2974   96.4883   -1.3237 N.ar    1  UNL1       -0.1416
      9 C          59.0268   95.3545   -0.6661 C.ar    1  UNL1        0.1333
     10 S          58.9365   94.7673    0.7112 S.2     1  UNL1       -0.0604
     11 C          59.9193   93.6376    0.7989 C.ar    1  UNL1        0.0971
     12 C          60.6171   93.5265   -0.5243 C.ar    1  UNL1        0.0538
     13 N          61.6798   92.5294   -0.8796 N.pl3   1  UNL1       -0.3564
     14 C          60.0654   94.5876   -1.4297 C.ar    1  UNL1        0.0363
     15 C          60.3747   94.9546   -2.8509 C.ar    1  UNL1       -0.0033
     16 C          61.4134   94.1876   -3.6145 C.3     1  UNL1        0.0324
     17 H          61.9773   91.8684   -0.2134 H       1  UNL1        0.1424
     18 H          62.0799   92.5359   -1.7792 H       1  UNL1        0.1424
     19 C          59.2993   91.6605    4.1837 C.3     1  UNL1        0.1113
     20 C          60.4952   90.9699    4.7690 C.3     1  UNL1        0.1121
     21 N          59.6423   90.4351    5.8809 N.pl3   1  UNL1       -0.3029
     22 C          58.4463   91.1258    5.2956 C.3     1  UNL1        0.1121
     23 C          59.8848   89.5686    7.0811 C.ar    1  UNL1        0.0674
     24 C          59.4346   88.1378    7.0764 C.ar    1  UNL1        0.0176
     25 C          59.6771   87.2713    8.2765 C.ar    1  UNL1        0.0244
     26 C          60.3698   87.8356    9.4814 C.ar    1  UNL1        0.1527
     27 N          60.8200   89.2664    9.4862 N.ar    1  UNL1       -0.2386
     28 C          60.5775   90.1329    8.2859 C.ar    1  UNL1        0.1132
     29 C          60.6123   86.9691   10.6815 C.3     1  UNL1        0.4348
     30 F          60.8548   86.1026   11.8817 F       1  UNL1       -0.1644
     31 F          59.7839   87.8975   11.5193 F       1  UNL1       -0.1644
     32 F          61.4407   86.0407    9.8438 F       1  UNL1       -0.1644
@<TRIPOS>BOND
     1     5     6    1
     2     6     7   ar
     3     7     8   ar
     4     8     9   ar
     5     9    10   ar
     6    10    11   ar
     7    11     1    1
     8     1     2    2
     9     1     3   am
    10     3    19    1
    11    19    20    1
    12    20    21    1
    13    21    23    1
    14    23    24   ar
    15    24    25   ar
    16    25    26   ar
    17    26    29    1
    18    29    30    1
    19    29    31    1
    20    29    32    1
    21    26    27   ar
    22    27    28   ar
    23    21    22    1
    24    11    12   ar
    25    12    13    1
    26    12    14   ar
    27    14    15   ar
    28    15    16    1
    29    15     6   ar
    30    14     9   ar
    31    22    19    1
    32    28    23   ar
    33     3     4    1
    34    13    17    1
    35    13    18    1
@<TRIPOS>MOLECULE
*****
 32 35 0 0 0
SMALL
GASTEIGER

@<TRIPOS>ATOM
      1 C          55.6573   95.8446   -3.4847 C.2     1  UNL1        0.2532
      2 O          56.0817   96.8460   -2.4517 O.2     1  UNL1       -0.2695
      3 N          56.5540   94.6910   -3.8239 N.am    1  UNL1       -0.2987
      4 H          56.2754   94.0338   -4.5019 H       1  UNL1        0.1498
      5 C          48.2022   96.8560   -5.7257 C.3     1  UNL1        0.0537
      6 C          49.6805   96.6095   -5.7864 C.ar    1  UNL1        0.0771
      7 N          50.3490   96.3801   -7.1095 N.ar    1  UNL1       -0.1522
      8 N          51.8273   96.1336   -7.1702 N.ar    1  UNL1       -0.1416
      9 C          52.6373   96.1164   -5.9078 C.ar    1  UNL1        0.1333
     10 S          54.1003   95.9008   -5.6567 S.2     1  UNL1       -0.0604
     11 C          54.3361   95.9968   -4.1785 C.ar    1  UNL1        0.0971
     12 C          53.0188   96.2719   -3.5159 C.ar    1  UNL1        0.0538
     13 N          52.7913   96.4430   -2.0432 N.pl3   1  UNL1       -0.3564
     14 C          51.9688   96.3458   -4.5847 C.ar    1  UNL1        0.0363
     15 C          50.4905   96.5923   -4.5240 C.ar    1  UNL1       -0.0033
     16 C          49.8221   96.8217   -3.2008 C.3     1  UNL1        0.0324
     17 H          53.5483   96.3765   -1.4172 H       1  UNL1        0.1424
     18 H          51.8851   96.6217   -1.7025 H       1  UNL1        0.1424
     19 C          57.8751   94.5388   -3.1301 C.3     1  UNL1        0.1113
     20 C          59.3115   94.6427   -3.5493 C.3     1  UNL1        0.1121
     21 N          59.7435   94.3235   -2.1489 N.pl3   1  UNL1       -0.3029
     22 C          58.3070   94.2196   -1.7295 C.3     1  UNL1        0.1121
     23 C          61.0646   94.1713   -1.4550 C.ar    1  UNL1        0.0674
     24 C          61.1896   93.2575   -0.2720 C.ar    1  UNL1        0.0176
     25 C          62.5107   93.1053    0.4219 C.ar    1  UNL1        0.0244
     26 C          63.7069   93.8669   -0.0672 C.ar    1  UNL1        0.1527
     27 N          63.5820   94.7807   -1.2502 N.ar    1  UNL1       -0.2386
     28 C          62.2608   94.9329   -1.9440 C.ar    1  UNL1        0.1132
     29 C          65.0280   93.7146    0.6267 C.3     1  UNL1        0.4348
     30 F          66.3491   93.5624    1.3205 F       1  UNL1       -0.1644
     31 F          64.4734   92.5781    1.4332 F       1  UNL1       -0.1644
     32 F          65.5826   94.8512   -0.1799 F       1  UNL1       -0.1644
@<TRIPOS>BOND
     1     5     6    1
     2     6     7   ar
     3     7     8   ar
     4     8     9   ar
     5     9    10   ar
     6    10    11   ar
     7    11     1    1
     8     1     2    2
     9     1     3   am
    10     3    19    1
    11    19    20    1
    12    20    21    1
    13    21    23    1
    14    23    24   ar
    15    24    25   ar
    16    25    26   ar
    17    26    29    1
    18    29    30    1
    19    29    31    1
    20    29    32    1
    21    26    27   ar
    22    27    28   ar
    23    21    22    1
    24    11    12   ar
    25    12    13    1
    26    12    14   ar
    27    14    15   ar
    28    15    16    1
    29    15     6   ar
    30    14     9   ar
    31    22    19    1
    32    28    23   ar
    33     3     4    1
    34    13    17    1
    35    13    18    1
@<TRIPOS>MOLECULE
*****
 32 35 0 0 0
SMALL
GASTEIGER

@<TRIPOS>ATOM
      1 C          64.0735   89.6283   12.7906 C.2     1  UNL1        0.2532
      2 O          62.9137   89.2780   11.9062 O.2     1  UNL1       -0.2695
      3 N          64.6524   88.5962   13.7123 N.am    1  UNL1       -0.2987
      4 H          65.4136   88.8261   14.2928 H       1  UNL1        0.1498
      5 C          66.6649   96.8560   11.1570 C.3     1  UNL1        0.0537
      6 C          66.3582   95.5957   11.9104 C.ar    1  UNL1        0.0771
      7 N          66.7508   95.4696   13.3525 N.ar    1  UNL1       -0.1522
      8 N          66.4441   94.2093   14.1059 N.ar    1  UNL1       -0.1416
      9 C          65.7447   93.0751   13.4171 C.ar    1  UNL1        0.1333
     10 S          65.3135   91.7214   13.8982 S.2     1  UNL1       -0.0604
     11 C          64.6544   91.0108   12.7533 C.ar    1  UNL1        0.0971
     12 C          64.6782   91.9254   11.5647 C.ar    1  UNL1        0.0538
     13 N          64.1253   91.6182   10.2046 N.pl3   1  UNL1       -0.3564
     14 C          65.3520   93.2013   11.9750 C.ar    1  UNL1        0.0363
     15 C          65.6588   94.4615   11.2216 C.ar    1  UNL1       -0.0033
     16 C          65.2661   94.5876    9.7794 C.3     1  UNL1        0.0324
     17 H          63.6987   90.7479   10.0317 H       1  UNL1        0.1424
     18 H          64.1889   92.2869    9.4848 H       1  UNL1        0.1424
     19 C          64.0714   87.2138   13.7496 C.3     1  UNL1        0.1113
     20 C          64.1517   86.0547   14.6982 C.3     1  UNL1        0.1121
     21 N          63.2499   85.2588   13.8022 N.pl3   1  UNL1       -0.3029
     22 C          63.1695   86.4178   12.8534 C.3     1  UNL1        0.1121
     23 C          62.6689   83.8763   13.8394 C.ar    1  UNL1        0.0674
     24 C          62.6440   83.0395   12.5948 C.ar    1  UNL1        0.0176
     25 C          62.0631   81.6571   12.6319 C.ar    1  UNL1        0.0244
     26 C          61.5070   81.1114   13.9138 C.ar    1  UNL1        0.1527
     27 N          61.5318   81.9482   15.1584 N.ar    1  UNL1       -0.2386
     28 C          62.1128   83.3307   15.1212 C.ar    1  UNL1        0.1132
     29 C          60.9260   79.7290   13.9510 C.3     1  UNL1        0.4348
     30 F          60.3451   78.3466   13.9881 F       1  UNL1       -0.1644
     31 F          59.6232   80.2896   14.4392 F       1  UNL1       -0.1644
     32 F          62.2288   79.1684   13.4627 F       1  UNL1       -0.1644
@<TRIPOS>BOND
     1     5     6    1
     2     6     7   ar
     3     7     8   ar
     4     8     9   ar
     5     9    10   ar
     6    10    11   ar
     7    11     1    1
     8     1     2    2
     9     1     3   am
    10     3    19    1
    11    19    20    1
    12    20    21    1
    13    21    23    1
    14    23    24   ar
    15    24    25   ar
    16    25    26   ar
    17    26    29    1
    18    29    30    1
    19    29    31    1
    20    29    32    1
    21    26    27   ar
    22    27    28   ar
    23    21    22    1
    24    11    12   ar
    25    12    13    1
    26    12    14   ar
    27    14    15   ar
    28    15    16    1
    29    15     6   ar
    30    14     9   ar
    31    22    19    1
    32    28    23   ar
    33     3     4    1
    34    13    17    1
    35    13    18    1
@<TRIPOS>MOLECULE
*****
 32 35 0 0 0
SMALL
GASTEIGER

@<TRIPOS>ATOM
      1 C          61.9276   86.6232    9.6467 C.2     1  UNL1        0.2532
      2 O          63.0144   86.8172    8.6312 O.2     1  UNL1       -0.2695
      3 N          60.6402   87.3828    9.5218 N.am    1  UNL1       -0.2987
      4 H          59.9269   87.2555   10.1883 H       1  UNL1        0.1498
      5 C          63.5337   80.7139   14.5583 C.3     1  UNL1        0.0537
      6 C          63.0722   82.0453   14.0441 C.ar    1  UNL1        0.0771
      7 N          62.4968   83.0565   14.9908 N.ar    1  UNL1       -0.1522
      8 N          62.0353   84.3879   14.4765 N.ar    1  UNL1       -0.1416
      9 C          62.1493   84.7080   13.0155 C.ar    1  UNL1        0.1333
     10 S          61.7807   85.9273   12.2234 S.2     1  UNL1       -0.0604
     11 C          62.1283   85.6697   10.7872 C.ar    1  UNL1        0.0971
     12 C          62.7117   84.2911   10.6916 C.ar    1  UNL1        0.0538
     13 N          63.1970   83.6240    9.4388 N.pl3   1  UNL1       -0.3564
     14 C          62.7247   83.6968   12.0688 C.ar    1  UNL1        0.0363
     15 C          63.1861   82.3654   12.5831 C.ar    1  UNL1       -0.0033
     16 C          63.7616   81.3542   11.6363 C.3     1  UNL1        0.0324
     17 H          63.1467   84.0981    8.5775 H       1  UNL1        0.1424
     18 H          63.5657   82.7120    9.4779 H       1  UNL1        0.1424
     19 C          60.4396   88.3363    8.3814 C.3     1  UNL1        0.1113
     20 C          60.6670   89.8042    8.1736 C.3     1  UNL1        0.1121
     21 N          60.1559   89.6846    6.7686 N.pl3   1  UNL1       -0.3029
     22 C          59.9285   88.2166    6.9762 C.3     1  UNL1        0.1121
     23 C          59.9553   90.6381    5.6281 C.ar    1  UNL1        0.0674
     24 C          61.1204   91.0413    4.7737 C.ar    1  UNL1        0.0176
     25 C          60.9199   91.9947    3.6333 C.ar    1  UNL1        0.0244
     26 C          59.5541   92.5451    3.3471 C.ar    1  UNL1        0.1527
     27 N          58.3890   92.1420    4.2015 N.ar    1  UNL1       -0.2386
     28 C          58.5896   91.1885    5.3420 C.ar    1  UNL1        0.1132
     29 C          59.3535   93.4985    2.2067 C.3     1  UNL1        0.4348
     30 F          59.1530   94.4520    1.0662 F       1  UNL1       -0.1644
     31 F          60.0850   94.5637    2.9685 F       1  UNL1       -0.1644
     32 F          58.6221   92.4334    1.4449 F       1  UNL1       -0.1644
@<TRIPOS>BOND
     1     5     6    1
     2     6     7   ar
     3     7     8   ar
     4     8     9   ar
     5     9    10   ar
     6    10    11   ar
     7    11     1    1
     8     1     2    2
     9     1     3   am
    10     3    19    1
    11    19    20    1
    12    20    21    1
    13    21    23    1
    14    23    24   ar
    15    24    25   ar
    16    25    26   ar
    17    26    29    1
    18    29    30    1
    19    29    31    1
    20    29    32    1
    21    26    27   ar
    22    27    28   ar
    23    21    22    1
    24    11    12   ar
    25    12    13    1
    26    12    14   ar
    27    14    15   ar
    28    15    16    1
    29    15     6   ar
    30    14     9   ar
    31    22    19    1
    32    28    23   ar
    33     3     4    1
    34    13    17    1
    35    13    18    1
