@<TRIPOS>MOLECULE
*****
 32 35 0 0 0
SMALL
GASTEIGER

@<TRIPOS>ATOM
      1 O          59.3087   88.2750   12.3258 O.2     1  UNL1       -0.2742
      2 C          60.6470   88.2903   11.6484 C.2     1  UNL1        0.2335
      3 N          61.7901   89.0422   12.2630 N.am    1  UNL1       -0.2755
      4 C          63.1284   89.0575   11.5856 C.3     1  UNL1        0.1149
      5 C          64.2716   89.8094   12.2003 C.3     1  UNL1        0.1137
      6 N          64.0765   90.5460   13.4923 N.pl3   1  UNL1       -0.2897
      7 C          62.7383   90.5307   14.1697 C.3     1  UNL1        0.1137
      8 C          61.5950   89.7788   13.5551 C.3     1  UNL1        0.1149
      9 C          65.2196   91.2979   14.1070 C.ar    1  UNL1        0.1318
     10 C          66.4840   91.5087   13.3279 C.ar    1  UNL1        0.0343
     11 C          67.6272   92.2606   13.9426 C.ar    1  UNL1        0.0083
     12 C          67.5060   92.8017   15.3363 C.ar    1  UNL1        0.0906
     13 C          66.2417   92.5909   16.1154 C.ar    1  UNL1        0.1041
     14 N          65.0985   91.8389   15.5008 N.ar    1  UNL1       -0.2292
     15 C          68.6491   93.5536   15.9510 C.3     1  UNL1        0.4200
     16 F          69.7923   94.3055   16.5656 F       1  UNL1       -0.1658
     17 F          68.1469   94.8238   15.3312 F       1  UNL1       -0.1658
     18 F          69.1514   92.2833   16.5708 F       1  UNL1       -0.1658
     19 C          60.8421   87.5537   10.3563 C.3     1  UNL1        0.1226
     20 C          61.7260   86.3427   10.3095 C.ar    1  UNL1       -0.0097
     21 C          61.9208   85.5083   11.5406 C.ar    1  UNL1       -0.0026
     22 C          62.8047   84.2973   11.4937 C.ar    1  UNL1        0.0111
     23 C          63.4937   83.9207   10.2157 C.ar    1  UNL1        0.0577
     24 CL         64.3777   82.7097   10.1688 Cl      1  UNL1       -0.0822
     25 C          63.2989   84.7551    8.9845 C.ar    1  UNL1        0.0111
     26 C          62.4150   85.9661    9.0314 C.ar    1  UNL1       -0.0026
     27 C          60.1533   88.0281    9.1112 C.ar    1  UNL1        0.0094
     28 C          60.4258   89.4047    8.5814 C.ar    1  UNL1       -0.0004
     29 C          59.7370   89.8791    7.3361 C.ar    1  UNL1        0.0204
     30 C          58.7756   88.9769    6.6208 C.ar    1  UNL1        0.0989
     31 N          58.5031   87.6003    7.1506 N.ar    1  UNL1       -0.2426
     32 C          59.1919   87.1259    8.3957 C.ar    1  UNL1        0.0954
@<TRIPOS>BOND
     1     1     2    2
     2     2    19    1
     3    19    20    1
     4    20    21   ar
     5    21    22   ar
     6    22    23   ar
     7    23    24    1
     8    23    25   ar
     9    25    26   ar
    10    19    27    1
    11    27    28   ar
    12    28    29   ar
    13    29    30   ar
    14    30    31   ar
    15    31    32   ar
    16     2     3   am
    17     3     4    1
    18     4     5    1
    19     5     6    1
    20     6     9    1
    21     9    10   ar
    22    10    11   ar
    23    11    12   ar
    24    12    15    1
    25    15    16    1
    26    15    17    1
    27    15    18    1
    28    12    13   ar
    29    13    14   ar
    30     6     7    1
    31     7     8    1
    32    26    20   ar
    33    32    27   ar
    34     8     3    1
    35    14     9   ar
@<TRIPOS>MOLECULE
*****
 32 35 0 0 0
SMALL
GASTEIGER

@<TRIPOS>ATOM
      1 O          62.3759   91.4873   10.5018 O.2     1  UNL1       -0.2742
      2 C          63.2902   90.8152   11.4829 C.2     1  UNL1        0.2335
      3 N          63.1250   89.3549   11.7831 N.am    1  UNL1       -0.2755
      4 C          64.0393   88.6828   12.7642 C.3     1  UNL1        0.1149
      5 C          63.8741   87.2225   13.0644 C.3     1  UNL1        0.1137
      6 N          62.7948   86.4342   12.3835 N.pl3   1  UNL1       -0.2897
      7 C          61.8806   87.1062   11.4024 C.3     1  UNL1        0.1137
      8 C          62.0457   88.5666   11.1022 C.3     1  UNL1        0.1149
      9 C          62.6297   84.9738   12.6837 C.ar    1  UNL1        0.1318
     10 C          62.7416   83.9639   11.5801 C.ar    1  UNL1        0.0343
     11 C          62.5764   82.5036   11.8803 C.ar    1  UNL1        0.0083
     12 C          62.2994   82.0531   13.2840 C.ar    1  UNL1        0.0906
     13 C          62.1876   83.0629   14.3875 C.ar    1  UNL1        0.1041
     14 N          62.3527   84.5233   14.0873 N.ar    1  UNL1       -0.2292
     15 C          62.1343   80.5928   13.5842 C.3     1  UNL1        0.4200
     16 F          61.9691   79.1324   13.8844 F       1  UNL1       -0.1658
     17 F          61.0557   80.9183   14.5744 F       1  UNL1       -0.1658
     18 F          63.2129   80.2673   12.5939 F       1  UNL1       -0.1658
     19 C          64.3695   91.6035   12.1638 C.3     1  UNL1        0.1226
     20 C          65.3761   92.3581   11.3468 C.ar    1  UNL1       -0.0097
     21 C          65.0784   93.7571   10.8951 C.ar    1  UNL1       -0.0026
     22 C          66.0850   94.5116   10.0782 C.ar    1  UNL1        0.0111
     23 C          67.3893   93.8671    9.7129 C.ar    1  UNL1        0.0577
     24 CL         68.3959   94.6216    8.8959 Cl      1  UNL1       -0.0822
     25 C          67.6870   92.4681   10.1646 C.ar    1  UNL1        0.0111
     26 C          66.6804   91.7136   10.9816 C.ar    1  UNL1       -0.0026
     27 C          64.4422   91.6372   13.6616 C.ar    1  UNL1        0.0094
     28 C          65.5843   92.3325   14.3416 C.ar    1  UNL1       -0.0004
     29 C          65.6570   92.3662   15.8395 C.ar    1  UNL1        0.0204
     30 C          64.5877   91.7047   16.6574 C.ar    1  UNL1        0.0989
     31 N          63.4456   91.0094   15.9774 N.ar    1  UNL1       -0.2426
     32 C          63.3729   90.9757   14.4796 C.ar    1  UNL1        0.0954
@<TRIPOS>BOND
     1     1     2    2
     2     2    19    1
     3    19    20    1
     4    20    21   ar
     5    21    22   ar
     6    22    23   ar
     7    23    24    1
     8    23    25   ar
     9    25    26   ar
    10    19    27    1
    11    27    28   ar
    12    28    29   ar
    13    29    30   ar
    14    30    31   ar
    15    31    32   ar
    16     2     3   am
    17     3     4    1
    18     4     5    1
    19     5     6    1
    20     6     9    1
    21     9    10   ar
    22    10    11   ar
    23    11    12   ar
    24    12    15    1
    25    15    16    1
    26    15    17    1
    27    15    18    1
    28    12    13   ar
    29    13    14   ar
    30     6     7    1
    31     7     8    1
    32    26    20   ar
    33    32    27   ar
    34     8     3    1
    35    14     9   ar
@<TRIPOS>MOLECULE
*****
 32 35 0 0 0
SMALL
GASTEIGER

@<TRIPOS>ATOM
      1 O          62.1698   85.6147   12.5890 O.2     1  UNL1       -0.2742
      2 C          62.2300   87.0097   12.0409 C.2     1  UNL1        0.2335
      3 N          63.1760   88.0095   12.6370 N.am    1  UNL1       -0.2755
      4 C          63.2362   89.4046   12.0889 C.3     1  UNL1        0.1149
      5 C          64.1822   90.4044   12.6851 C.3     1  UNL1        0.1137
      6 N          65.0679   90.0093   13.8294 N.pl3   1  UNL1       -0.2897
      7 C          65.0077   88.6144   14.3775 C.3     1  UNL1        0.1137
      8 C          64.0617   87.6144   13.7813 C.3     1  UNL1        0.1149
      9 C          66.0139   91.0091   14.4255 C.ar    1  UNL1        0.1318
     10 C          65.6092   91.7943   15.6379 C.ar    1  UNL1        0.0343
     11 C          66.5551   92.7942   16.2341 C.ar    1  UNL1        0.0083
     12 C          67.9058   93.0089   15.6179 C.ar    1  UNL1        0.0906
     13 C          68.3105   92.2238   14.4056 C.ar    1  UNL1        0.1041
     14 N          67.3645   91.2239   13.8093 N.ar    1  UNL1       -0.2292
     15 C          68.8517   94.0087   16.2141 C.3     1  UNL1        0.4200
     16 F          69.7977   95.0087   16.8102 F       1  UNL1       -0.1658
     17 F          68.1029   95.1195   15.5392 F       1  UNL1       -0.1658
     18 F          69.6005   92.8980   16.8889 F       1  UNL1       -0.1658
     19 C          61.3443   87.4048   10.8966 C.3     1  UNL1        0.1226
     20 C          61.3756   86.6203    9.6184 C.ar    1  UNL1       -0.0097
     21 C          62.6395   85.9363    9.1889 C.ar    1  UNL1       -0.0026
     22 C          62.6707   85.1518    7.9108 C.ar    1  UNL1        0.0111
     23 C          61.4380   85.0515    7.0621 C.ar    1  UNL1        0.0577
     24 CL         61.4692   84.2670    5.7839 Cl      1  UNL1       -0.0822
     25 C          60.1740   85.7355    7.4916 C.ar    1  UNL1        0.0111
     26 C          60.1428   86.5199    8.7697 C.ar    1  UNL1       -0.0026
     27 C          60.4274   88.5843   11.0304 C.ar    1  UNL1        0.0094
     28 C          59.4633   88.6585   12.1772 C.ar    1  UNL1       -0.0004
     29 C          58.5464   89.8381   12.3111 C.ar    1  UNL1        0.0204
     30 C          58.5935   90.9433   11.2981 C.ar    1  UNL1        0.0989
     31 N          59.5575   90.8691   10.1513 N.ar    1  UNL1       -0.2426
     32 C          60.4744   89.6896   10.0175 C.ar    1  UNL1        0.0954
@<TRIPOS>BOND
     1     1     2    2
     2     2    19    1
     3    19    20    1
     4    20    21   ar
     5    21    22   ar
     6    22    23   ar
     7    23    24    1
     8    23    25   ar
     9    25    26   ar
    10    19    27    1
    11    27    28   ar
    12    28    29   ar
    13    29    30   ar
    14    30    31   ar
    15    31    32   ar
    16     2     3   am
    17     3     4    1
    18     4     5    1
    19     5     6    1
    20     6     9    1
    21     9    10   ar
    22    10    11   ar
    23    11    12   ar
    24    12    15    1
    25    15    16    1
    26    15    17    1
    27    15    18    1
    28    12    13   ar
    29    13    14   ar
    30     6     7    1
    31     7     8    1
    32    26    20   ar
    33    32    27   ar
    34     8     3    1
    35    14     9   ar
@<TRIPOS>MOLECULE
*****
 32 35 0 0 0
SMALL
GASTEIGER

@<TRIPOS>ATOM
      1 O          65.0323   96.4684   -2.4677 O.2     1  UNL1       -0.2742
      2 C          63.9424   95.4609   -2.6851 C.2     1  UNL1        0.2335
      3 N          63.2779   94.8094   -1.5088 N.am    1  UNL1       -0.2755
      4 C          62.1880   93.8019   -1.7261 C.3     1  UNL1        0.1149
      5 C          61.5235   93.1503   -0.5498 C.3     1  UNL1        0.1137
      6 N          61.9487   93.5061    0.8439 N.pl3   1  UNL1       -0.2897
      7 C          63.0386   94.5136    1.0613 C.3     1  UNL1        0.1137
      8 C          63.7032   95.1652   -0.1150 C.3     1  UNL1        0.1149
      9 C          61.2842   92.8546    2.0203 C.ar    1  UNL1        0.1318
     10 C          62.0804   91.9778    2.9408 C.ar    1  UNL1        0.0343
     11 C          61.4159   91.3262    4.1171 C.ar    1  UNL1        0.0083
     12 C          59.9551   91.5514    4.3730 C.ar    1  UNL1        0.0906
     13 C          59.1589   92.4281    3.4525 C.ar    1  UNL1        0.1041
     14 N          59.8234   93.0798    2.2761 N.ar    1  UNL1       -0.2292
     15 C          59.2906   90.8998    5.5493 C.3     1  UNL1        0.4200
     16 F          58.6260   90.2482    6.7257 F       1  UNL1       -0.1658
     17 F          58.0746   91.7512    5.3339 F       1  UNL1       -0.1658
     18 F          60.5066   90.0484    5.7647 F       1  UNL1       -0.1658
     19 C          63.5171   95.1051   -4.0788 C.3     1  UNL1        0.1226
     20 C          62.1226   95.4117   -4.5388 C.ar    1  UNL1       -0.0097
     21 C          61.4878   94.5807   -5.6141 C.ar    1  UNL1       -0.0026
     22 C          60.0934   94.8873   -6.0740 C.ar    1  UNL1        0.0111
     23 C          59.3338   96.0250   -5.4585 C.ar    1  UNL1        0.0577
     24 CL         57.9393   96.3316   -5.9185 Cl      1  UNL1       -0.0822
     25 C          59.9686   96.8560   -4.3832 C.ar    1  UNL1        0.0111
     26 C          61.3630   96.5493   -3.9233 C.ar    1  UNL1       -0.0026
     27 C          64.4862   94.4427   -5.0126 C.ar    1  UNL1        0.0094
     28 C          65.1812   95.2498   -6.0688 C.ar    1  UNL1       -0.0004
     29 C          66.1503   94.5873   -7.0026 C.ar    1  UNL1        0.0204
     30 C          66.4245   93.1177   -6.8802 C.ar    1  UNL1        0.0989
     31 N          65.7295   92.3105   -5.8240 N.ar    1  UNL1       -0.2426
     32 C          64.7604   92.9730   -4.8902 C.ar    1  UNL1        0.0954
@<TRIPOS>BOND
     1     1     2    2
     2     2    19    1
     3    19    20    1
     4    20    21   ar
     5    21    22   ar
     6    22    23   ar
     7    23    24    1
     8    23    25   ar
     9    25    26   ar
    10    19    27    1
    11    27    28   ar
    12    28    29   ar
    13    29    30   ar
    14    30    31   ar
    15    31    32   ar
    16     2     3   am
    17     3     4    1
    18     4     5    1
    19     5     6    1
    20     6     9    1
    21     9    10   ar
    22    10    11   ar
    23    11    12   ar
    24    12    15    1
    25    15    16    1
    26    15    17    1
    27    15    18    1
    28    12    13   ar
    29    13    14   ar
    30     6     7    1
    31     7     8    1
    32    26    20   ar
    33    32    27   ar
    34     8     3    1
    35    14     9   ar
@<TRIPOS>MOLECULE
*****
 32 35 0 0 0
SMALL
GASTEIGER

@<TRIPOS>ATOM
      1 O          59.7836   88.0200   10.8605 O.2     1  UNL1       -0.2742
      2 C          61.1640   87.5288   11.1817 C.2     1  UNL1        0.2335
      3 N          62.1447   88.4384   11.8605 N.am    1  UNL1       -0.2755
      4 C          63.5252   87.9471   12.1818 C.3     1  UNL1        0.1149
      5 C          64.5059   88.8567   12.8606 C.3     1  UNL1        0.1137
      6 N          64.1062   90.2576   13.2181 N.pl3   1  UNL1       -0.2897
      7 C          62.7259   90.7488   12.8969 C.3     1  UNL1        0.1137
      8 C          61.7451   89.8392   12.2181 C.3     1  UNL1        0.1149
      9 C          65.0869   91.1672   13.8969 C.ar    1  UNL1        0.1318
     10 C          66.2849   91.6712   13.1480 C.ar    1  UNL1        0.0343
     11 C          67.2656   92.5808   13.8268 C.ar    1  UNL1        0.0083
     12 C          67.0484   92.9864   15.2545 C.ar    1  UNL1        0.0906
     13 C          65.8505   92.4824   16.0034 C.ar    1  UNL1        0.1041
     14 N          64.8697   91.5728   15.3246 N.ar    1  UNL1       -0.2292
     15 C          68.0291   93.8960   15.9333 C.3     1  UNL1        0.4200
     16 F          69.0099   94.8056   16.6122 F       1  UNL1       -0.1658
     17 F          68.4540   92.7699   16.8284 F       1  UNL1       -0.1658
     18 F          67.6042   95.0221   15.0382 F       1  UNL1       -0.1658
     19 C          61.5637   86.1279   10.8242 C.3     1  UNL1        0.1226
     20 C          61.6091   85.7050    9.3857 C.ar    1  UNL1       -0.0097
     21 C          60.3871   85.8374    8.5260 C.ar    1  UNL1       -0.0026
     22 C          60.4326   85.4145    7.0877 C.ar    1  UNL1        0.0111
     23 C          61.7001   84.8591    6.5089 C.ar    1  UNL1        0.0577
     24 CL         61.7455   84.4362    5.0704 Cl      1  UNL1       -0.0822
     25 C          62.9221   84.7267    7.3685 C.ar    1  UNL1        0.0111
     26 C          62.8767   85.1496    8.8069 C.ar    1  UNL1       -0.0026
     27 C          61.9179   85.1500   11.9050 C.ar    1  UNL1        0.0094
     28 C          62.3310   83.7532   11.5467 C.ar    1  UNL1       -0.0004
     29 C          62.6852   82.7753   12.6276 C.ar    1  UNL1        0.0204
     30 C          62.6264   83.1942   14.0667 C.ar    1  UNL1        0.0989
     31 N          62.2133   84.5909   14.4250 N.ar    1  UNL1       -0.2426
     32 C          61.8591   85.5689   13.3441 C.ar    1  UNL1        0.0954
@<TRIPOS>BOND
     1     1     2    2
     2     2    19    1
     3    19    20    1
     4    20    21   ar
     5    21    22   ar
     6    22    23   ar
     7    23    24    1
     8    23    25   ar
     9    25    26   ar
    10    19    27    1
    11    27    28   ar
    12    28    29   ar
    13    29    30   ar
    14    30    31   ar
    15    31    32   ar
    16     2     3   am
    17     3     4    1
    18     4     5    1
    19     5     6    1
    20     6     9    1
    21     9    10   ar
    22    10    11   ar
    23    11    12   ar
    24    12    15    1
    25    15    16    1
    26    15    17    1
    27    15    18    1
    28    12    13   ar
    29    13    14   ar
    30     6     7    1
    31     7     8    1
    32    26    20   ar
    33    32    27   ar
    34     8     3    1
    35    14     9   ar
@<TRIPOS>MOLECULE
*****
 32 35 0 0 0
SMALL
GASTEIGER

@<TRIPOS>ATOM
      1 O          56.2581   91.3341   -1.8705 O.2     1  UNL1       -0.2742
      2 C          56.8839   92.6254   -2.3075 C.2     1  UNL1        0.2335
      3 N          58.0909   93.1541   -1.5910 N.am    1  UNL1       -0.2755
      4 C          58.7168   94.4454   -2.0281 C.3     1  UNL1        0.1149
      5 C          59.9238   94.9742   -1.3116 C.3     1  UNL1        0.1137
      6 N          60.5050   94.2118   -0.1579 N.pl3   1  UNL1       -0.2897
      7 C          59.8792   92.9205    0.2792 C.3     1  UNL1        0.1137
      8 C          58.6721   92.3917   -0.4374 C.3     1  UNL1        0.1149
      9 C          61.7120   94.7405    0.5586 C.ar    1  UNL1        0.1318
     10 C          62.9362   93.8849    0.6981 C.ar    1  UNL1        0.0343
     11 C          64.1432   94.4136    1.4146 C.ar    1  UNL1        0.0083
     12 C          64.1261   95.7981    1.9917 C.ar    1  UNL1        0.0906
     13 C          62.9021   96.6537    1.8522 C.ar    1  UNL1        0.1041
     14 N          61.6950   96.1250    1.1357 N.ar    1  UNL1       -0.2292
     15 C          65.3332   96.3268    2.7082 C.3     1  UNL1        0.4200
     16 F          66.5403   96.8557    3.4248 F       1  UNL1       -0.1658
     17 F          65.8781   96.8429    1.4095 F       1  UNL1       -0.1658
     18 F          64.7882   95.8108    4.0070 F       1  UNL1       -0.1658
     19 C          56.3027   93.3878   -3.4612 C.3     1  UNL1        0.1226
     20 C          55.0959   94.2547   -3.2554 C.ar    1  UNL1       -0.0097
     21 C          54.5338   95.0421   -4.4017 C.ar    1  UNL1       -0.0026
     22 C          53.3271   95.9089   -4.1959 C.ar    1  UNL1        0.0111
     23 C          52.6825   95.9884   -2.8438 C.ar    1  UNL1        0.0577
     24 CL         51.4757   96.8552   -2.6381 Cl      1  UNL1       -0.0822
     25 C          53.2446   95.2010   -1.6975 C.ar    1  UNL1        0.0111
     26 C          54.4513   94.3341   -1.9033 C.ar    1  UNL1       -0.0026
     27 C          56.9282   93.2834   -4.8205 C.ar    1  UNL1        0.0094
     28 C          56.4885   92.2066   -5.7677 C.ar    1  UNL1       -0.0004
     29 C          57.1140   92.1022   -7.1271 C.ar    1  UNL1        0.0204
     30 C          58.1792   93.0746   -7.5392 C.ar    1  UNL1        0.0989
     31 N          58.6189   94.1514   -6.5920 N.ar    1  UNL1       -0.2426
     32 C          57.9934   94.2558   -5.2327 C.ar    1  UNL1        0.0954
@<TRIPOS>BOND
     1     1     2    2
     2     2    19    1
     3    19    20    1
     4    20    21   ar
     5    21    22   ar
     6    22    23   ar
     7    23    24    1
     8    23    25   ar
     9    25    26   ar
    10    19    27    1
    11    27    28   ar
    12    28    29   ar
    13    29    30   ar
    14    30    31   ar
    15    31    32   ar
    16     2     3   am
    17     3     4    1
    18     4     5    1
    19     5     6    1
    20     6     9    1
    21     9    10   ar
    22    10    11   ar
    23    11    12   ar
    24    12    15    1
    25    15    16    1
    26    15    17    1
    27    15    18    1
    28    12    13   ar
    29    13    14   ar
    30     6     7    1
    31     7     8    1
    32    26    20   ar
    33    32    27   ar
    34     8     3    1
    35    14     9   ar
@<TRIPOS>MOLECULE
*****
 32 35 0 0 0
SMALL
GASTEIGER

@<TRIPOS>ATOM
      1 O          61.2867   96.8560   -1.5070 O.2     1  UNL1       -0.2742
      2 C          60.9095   95.4087   -1.6215 C.2     1  UNL1        0.2335
      3 N          60.6817   94.5928   -0.3837 N.am    1  UNL1       -0.2755
      4 C          60.3045   93.1454   -0.4982 C.3     1  UNL1        0.1149
      5 C          60.0766   92.3295    0.7397 C.3     1  UNL1        0.1137
      6 N          60.2260   92.9609    2.0921 N.pl3   1  UNL1       -0.2897
      7 C          60.6032   94.4081    2.2067 C.3     1  UNL1        0.1137
      8 C          60.8310   95.2241    0.9688 C.3     1  UNL1        0.1149
      9 C          59.9982   92.1450    3.3300 C.ar    1  UNL1        0.1318
     10 C          61.1362   91.3902    3.9508 C.ar    1  UNL1        0.0343
     11 C          60.9084   90.5743    5.1886 C.ar    1  UNL1        0.0083
     12 C          59.5426   90.5131    5.8058 C.ar    1  UNL1        0.0906
     13 C          58.4046   91.2679    5.1851 C.ar    1  UNL1        0.1041
     14 N          58.6324   92.0838    3.9471 N.ar    1  UNL1       -0.2292
     15 C          59.3148   89.6972    7.0436 C.3     1  UNL1        0.4200
     16 F          59.0870   88.8813    8.2816 F       1  UNL1       -0.1658
     17 F          60.6662   90.0979    7.5565 F       1  UNL1       -0.1658
     18 F          57.9633   89.2965    6.5308 F       1  UNL1       -0.1658
     19 C          60.7601   94.7773   -2.9740 C.3     1  UNL1        0.1226
     20 C          59.4106   94.7103   -3.6255 C.ar    1  UNL1       -0.0097
     21 C          58.7222   95.9715   -4.0561 C.ar    1  UNL1       -0.0026
     22 C          57.3728   95.9044   -4.7076 C.ar    1  UNL1        0.0111
     23 C          56.7117   94.5762   -4.9284 C.ar    1  UNL1        0.0577
     24 CL         55.3622   94.5092   -5.5799 Cl      1  UNL1       -0.0822
     25 C          57.4001   93.3150   -4.4978 C.ar    1  UNL1        0.0111
     26 C          58.7495   93.3821   -3.8463 C.ar    1  UNL1       -0.0026
     27 C          61.9602   94.2130   -3.6749 C.ar    1  UNL1        0.0094
     28 C          62.3029   94.6707   -5.0616 C.ar    1  UNL1       -0.0004
     29 C          63.5031   94.1064   -5.7626 C.ar    1  UNL1        0.0204
     30 C          64.3604   93.0843   -5.0768 C.ar    1  UNL1        0.0989
     31 N          64.0176   92.6265   -3.6901 N.ar    1  UNL1       -0.2426
     32 C          62.8176   93.1909   -2.9891 C.ar    1  UNL1        0.0954
@<TRIPOS>BOND
     1     1     2    2
     2     2    19    1
     3    19    20    1
     4    20    21   ar
     5    21    22   ar
     6    22    23   ar
     7    23    24    1
     8    23    25   ar
     9    25    26   ar
    10    19    27    1
    11    27    28   ar
    12    28    29   ar
    13    29    30   ar
    14    30    31   ar
    15    31    32   ar
    16     2     3   am
    17     3     4    1
    18     4     5    1
    19     5     6    1
    20     6     9    1
    21     9    10   ar
    22    10    11   ar
    23    11    12   ar
    24    12    15    1
    25    15    16    1
    26    15    17    1
    27    15    18    1
    28    12    13   ar
    29    13    14   ar
    30     6     7    1
    31     7     8    1
    32    26    20   ar
    33    32    27   ar
    34     8     3    1
    35    14     9   ar
@<TRIPOS>MOLECULE
*****
 32 35 0 0 0
SMALL
GASTEIGER

@<TRIPOS>ATOM
      1 O          62.4070   91.8966   13.6913 O.2     1  UNL1       -0.2742
      2 C          63.0785   90.5558   13.6509 C.2     1  UNL1        0.2335
      3 N          62.8270   89.6254   12.5016 N.am    1  UNL1       -0.2755
      4 C          63.4986   88.2847   12.4612 C.3     1  UNL1        0.1149
      5 C          63.2471   87.3542   11.3119 C.3     1  UNL1        0.1137
      6 N          62.3240   87.7644   10.2029 N.pl3   1  UNL1       -0.2897
      7 C          61.6525   89.1050   10.2433 C.3     1  UNL1        0.1137
      8 C          61.9040   90.0356   11.3926 C.3     1  UNL1        0.1149
      9 C          62.0725   86.8340    9.0536 C.ar    1  UNL1        0.1318
     10 C          63.1367   85.8681    8.6238 C.ar    1  UNL1        0.0343
     11 C          62.8852   84.9377    7.4745 C.ar    1  UNL1        0.0083
     12 C          61.5695   84.9730    6.7549 C.ar    1  UNL1        0.0906
     13 C          60.5054   85.9388    7.1847 C.ar    1  UNL1        0.1041
     14 N          60.7569   86.8693    8.3341 N.ar    1  UNL1       -0.2292
     15 C          61.3180   84.0425    5.6056 C.3     1  UNL1        0.4200
     16 F          61.0666   83.1120    4.4562 F       1  UNL1       -0.1658
     17 F          62.5684   84.5311    4.9365 F       1  UNL1       -0.1658
     18 F          60.0676   83.5540    6.2748 F       1  UNL1       -0.1658
     19 C          64.0016   90.1456   14.7598 C.3     1  UNL1        0.1226
     20 C          65.1915   90.9942   15.0978 C.ar    1  UNL1       -0.0097
     21 C          66.4553   90.8654   14.3004 C.ar    1  UNL1       -0.0026
     22 C          67.6451   91.7140   14.6383 C.ar    1  UNL1        0.0111
     23 C          67.5710   92.6914   15.7738 C.ar    1  UNL1        0.0577
     24 CL         68.7609   93.5400   16.1117 Cl      1  UNL1       -0.0822
     25 C          66.3072   92.8202   16.5712 C.ar    1  UNL1        0.0111
     26 C          65.1174   91.9716   16.2332 C.ar    1  UNL1       -0.0026
     27 C          63.7348   88.8869   15.5308 C.ar    1  UNL1        0.0094
     28 C          62.9965   88.9485   16.8351 C.ar    1  UNL1       -0.0004
     29 C          62.7297   87.6897   17.6061 C.ar    1  UNL1        0.0204
     30 C          63.2012   86.3694   17.0727 C.ar    1  UNL1        0.0989
     31 N          63.9394   86.3078   15.7684 N.ar    1  UNL1       -0.2426
     32 C          64.2062   87.5665   14.9975 C.ar    1  UNL1        0.0954
@<TRIPOS>BOND
     1     1     2    2
     2     2    19    1
     3    19    20    1
     4    20    21   ar
     5    21    22   ar
     6    22    23   ar
     7    23    24    1
     8    23    25   ar
     9    25    26   ar
    10    19    27    1
    11    27    28   ar
    12    28    29   ar
    13    29    30   ar
    14    30    31   ar
    15    31    32   ar
    16     2     3   am
    17     3     4    1
    18     4     5    1
    19     5     6    1
    20     6     9    1
    21     9    10   ar
    22    10    11   ar
    23    11    12   ar
    24    12    15    1
    25    15    16    1
    26    15    17    1
    27    15    18    1
    28    12    13   ar
    29    13    14   ar
    30     6     7    1
    31     7     8    1
    32    26    20   ar
    33    32    27   ar
    34     8     3    1
    35    14     9   ar
@<TRIPOS>MOLECULE
*****
 32 35 0 0 0
SMALL
GASTEIGER

@<TRIPOS>ATOM
      1 O          59.6665   88.0616   10.8749 O.2     1  UNL1       -0.2742
      2 C          61.0647   87.5730   11.1125 C.2     1  UNL1        0.2335
      3 N          62.0602   88.4560   11.8047 N.am    1  UNL1       -0.2755
      4 C          63.4584   87.9675   12.0423 C.3     1  UNL1        0.1149
      5 C          64.4539   88.8505   12.7345 C.3     1  UNL1        0.1137
      6 N          64.0514   90.2221   13.1890 N.pl3   1  UNL1       -0.2897
      7 C          62.6533   90.7107   12.9514 C.3     1  UNL1        0.1137
      8 C          61.6576   89.8277   12.2592 C.3     1  UNL1        0.1149
      9 C          65.0469   91.1051   13.8812 C.ar    1  UNL1        0.1318
     10 C          64.8529   91.4669   15.3240 C.ar    1  UNL1        0.0343
     11 C          65.8485   92.3499   16.0162 C.ar    1  UNL1        0.0083
     12 C          67.0380   92.8712   15.2656 C.ar    1  UNL1        0.0906
     13 C          67.2320   92.5094   13.8229 C.ar    1  UNL1        0.1041
     14 N          66.2364   91.6264   13.1307 N.ar    1  UNL1       -0.2292
     15 C          68.0335   93.7542   15.9578 C.3     1  UNL1        0.4200
     16 F          69.0291   94.6373   16.6499 F       1  UNL1       -0.1658
     17 F          67.6089   94.9073   15.0975 F       1  UNL1       -0.1658
     18 F          68.4582   92.6012   16.8180 F       1  UNL1       -0.1658
     19 C          61.4672   86.2014   10.6580 C.3     1  UNL1        0.1226
     20 C          61.9722   85.1995   11.6536 C.ar    1  UNL1       -0.0097
     21 C          61.8871   85.4930   13.1221 C.ar    1  UNL1       -0.0026
     22 C          62.3920   84.4910   14.1176 C.ar    1  UNL1        0.0111
     23 C          62.9820   83.1956   13.6446 C.ar    1  UNL1        0.0577
     24 CL         63.4869   82.1936   14.6403 Cl      1  UNL1       -0.0822
     25 C          63.0671   82.9021   12.1761 C.ar    1  UNL1        0.0111
     26 C          62.5622   83.9040   11.1806 C.ar    1  UNL1       -0.0026
     27 C          61.3649   85.8318    9.2079 C.ar    1  UNL1        0.0094
     28 C          62.5627   85.2896    8.4857 C.ar    1  UNL1       -0.0004
     29 C          62.4603   84.9199    7.0356 C.ar    1  UNL1        0.0204
     30 C          61.1602   85.0924    6.3076 C.ar    1  UNL1        0.0989
     31 N          59.9625   85.6346    7.0297 N.ar    1  UNL1       -0.2426
     32 C          60.0648   86.0043    8.4798 C.ar    1  UNL1        0.0954
@<TRIPOS>BOND
     1     1     2    2
     2     2    19    1
     3    19    20    1
     4    20    21   ar
     5    21    22   ar
     6    22    23   ar
     7    23    24    1
     8    23    25   ar
     9    25    26   ar
    10    19    27    1
    11    27    28   ar
    12    28    29   ar
    13    29    30   ar
    14    30    31   ar
    15    31    32   ar
    16     2     3   am
    17     3     4    1
    18     4     5    1
    19     5     6    1
    20     6     9    1
    21     9    10   ar
    22    10    11   ar
    23    11    12   ar
    24    12    15    1
    25    15    16    1
    26    15    17    1
    27    15    18    1
    28    12    13   ar
    29    13    14   ar
    30     6     7    1
    31     7     8    1
    32    26    20   ar
    33    32    27   ar
    34     8     3    1
    35    14     9   ar
