@<TRIPOS>MOLECULE
*****
 39 44 0 0 0
SMALL
GASTEIGER

@<TRIPOS>ATOM
      1 N          64.1362   92.3768   11.0639 N.3     1  UNL1       -0.2676
      2 C          64.6970   92.3783   12.4551 C.3     1  UNL1        0.0746
      3 C          64.6668   91.1240   13.2772 C.3     1  UNL1        0.0449
      4 C          64.0758   89.8683   12.7080 C.3     1  UNL1        0.1391
      5 C          63.5150   89.8668   11.3169 C.3     1  UNL1        0.0449
      6 C          63.5452   91.1211   10.4948 C.3     1  UNL1        0.0746
      7 C          63.5201   88.5438   12.2756 C.2     1  UNL1        0.2529
      8 O          62.8970   88.2411   10.9452 O.2     1  UNL1       -0.2724
      9 N          63.6969   87.5751   13.4073 N.am    1  UNL1       -0.1907
     10 C          64.3619   88.3010   14.5391 C.2     1  UNL1        0.3219
     11 O          64.7284   87.7129   15.8694 O.2     1  UNL1       -0.2512
     12 N          64.5961   89.7182   14.1070 N.am    1  UNL1       -0.2222
     13 C          65.2378   90.7961   14.9293 C.ar    1  UNL1        0.1453
     14 C          66.6982   91.0961   14.7645 C.ar    1  UNL1        0.0922
     15 C          67.3399   92.1741   15.5869 C.ar    1  UNL1        0.2259
     16 O          68.8003   92.4741   15.4221 O.3     1  UNL1       -0.4919
     17 N          66.5212   92.9521   16.5741 N.ar    1  UNL1       -0.1894
     18 C          65.0607   92.6521   16.7388 C.ar    1  UNL1        0.2027
     19 N          64.4191   91.5741   15.9165 N.ar    1  UNL1       -0.2084
     20 H          69.3117   91.9881   14.8055 H       1  UNL1        0.2938
     21 C          63.2817   86.1338   13.4071 C.ar    1  UNL1        0.0623
     22 C          62.8190   85.4867   12.1355 C.ar    1  UNL1        0.0166
     23 C          62.4038   84.0454   12.1353 C.ar    1  UNL1        0.0162
     24 C          62.4512   83.2511   13.4068 C.ar    1  UNL1        0.0539
     25 C          62.9138   83.8981   14.6785 C.ar    1  UNL1        0.0162
     26 C          63.3291   85.3395   14.6786 C.ar    1  UNL1        0.0166
     27 N          62.0359   81.8097   13.4066 N.am    1  UNL1       -0.2581
     28 C          61.1565   80.9591   14.2744 C.3     1  UNL1        0.1078
     29 C          61.4486   79.7713   13.4063 C.3     1  UNL1        0.1074
     30 C          62.3281   80.6218   12.5384 C.2     1  UNL1        0.2311
     31 O          63.1565   80.3833   11.3109 O.2     1  UNL1       -0.2745
     32 C          64.1663   93.6312   10.2418 C.3     1  UNL1        0.1183
     33 C          64.4063   96.6096    9.9743 C.3     1  UNL1        0.0323
     34 C          65.6000   95.7357    9.7266 C.ar    1  UNL1       -0.0069
     35 C          66.9137   96.3510    9.3451 C.ar    1  UNL1       -0.0015
     36 C          68.1074   95.4772    9.0973 C.ar    1  UNL1        0.0203
     37 C          67.9875   93.9880    9.2310 C.ar    1  UNL1        0.0985
     38 N          66.6737   93.3726    9.6125 N.ar    1  UNL1       -0.2471
     39 C          65.4800   94.2465    9.8603 C.ar    1  UNL1        0.0712
@<TRIPOS>BOND
     1    33    34    1
     2    34    35   ar
     3    35    36   ar
     4    36    37   ar
     5    37    38   ar
     6    38    39   ar
     7    39    32    1
     8    32     1    1
     9     1     2    1
    10     2     3    1
    11     3     4    1
    12     4     5    1
    13     5     6    1
    14     4     7    1
    15     7     8    2
    16     7     9   am
    17     9    21    1
    18    21    22   ar
    19    22    23   ar
    20    23    24   ar
    21    24    27    1
    22    27    28    1
    23    28    29    1
    24    29    30    1
    25    30    31    2
    26    24    25   ar
    27    25    26   ar
    28     9    10   am
    29    10    11    2
    30    10    12   am
    31    12    13    1
    32    13    14   ar
    33    14    15   ar
    34    15    16    1
    35    15    17   ar
    36    17    18   ar
    37    18    19   ar
    38    39    34   ar
    39     6     1    1
    40    26    21   ar
    41    19    13   ar
    42    12     4    1
    43    30    27   am
    44    16    20    1
@<TRIPOS>MOLECULE
*****
 39 44 0 0 0
SMALL
GASTEIGER

@<TRIPOS>ATOM
      1 N          63.9528   91.9485   10.9543 N.3     1  UNL1       -0.2676
      2 C          64.5262   92.0130   12.3388 C.3     1  UNL1        0.0746
      3 C          64.5369   90.7877   13.2039 C.3     1  UNL1        0.0449
      4 C          63.9742   89.4979   12.6844 C.3     1  UNL1        0.1391
      5 C          63.4008   89.4334   11.2999 C.3     1  UNL1        0.0449
      6 C          63.3901   90.6588   10.4348 C.3     1  UNL1        0.0746
      7 C          63.4498   88.1451   12.3036 C.2     1  UNL1        0.2529
      8 O          62.8226   87.7802   10.9908 O.2     1  UNL1       -0.2724
      9 N          63.6626   87.2213   13.4661 N.am    1  UNL1       -0.1907
     10 C          64.3186   88.0032   14.5654 C.2     1  UNL1        0.3219
     11 O          64.7128   87.4714   15.9114 O.2     1  UNL1       -0.2512
     12 N          64.5111   89.4101   14.0823 N.am    1  UNL1       -0.2222
     13 C          65.1316   90.5324   14.8604 C.ar    1  UNL1        0.1453
     14 C          64.2966   91.3370   15.8119 C.ar    1  UNL1        0.0922
     15 C          64.9172   92.4592   16.5900 C.ar    1  UNL1        0.2259
     16 O          64.0821   93.2638   17.5414 O.3     1  UNL1       -0.4919
     17 N          66.3729   92.7769   16.4166 N.ar    1  UNL1       -0.1894
     18 C          67.2080   91.9723   15.4652 C.ar    1  UNL1        0.2027
     19 N          66.5874   90.8501   14.6871 N.ar    1  UNL1       -0.2084
     20 H          63.1727   93.0653   17.6497 H       1  UNL1        0.2938
     21 C          63.2857   85.7704   13.5198 C.ar    1  UNL1        0.0623
     22 C          63.3039   85.0388   14.8291 C.ar    1  UNL1        0.0166
     23 C          62.9270   83.5880   14.8829 C.ar    1  UNL1        0.0162
     24 C          62.5319   82.8687   13.6273 C.ar    1  UNL1        0.0539
     25 C          62.5138   83.6003   12.3179 C.ar    1  UNL1        0.0162
     26 C          62.8907   85.0512   12.2642 C.ar    1  UNL1        0.0166
     27 N          62.1550   81.4178   13.6811 N.am    1  UNL1       -0.2581
     28 C          62.8831   80.1241   13.4663 C.3     1  UNL1        0.1078
     29 C          61.6220   79.3660   13.7571 C.3     1  UNL1        0.1074
     30 C          60.8938   80.6597   13.9719 C.2     1  UNL1        0.2311
     31 O          59.4871   81.0383   14.3294 O.2     1  UNL1       -0.2745
     32 C          63.9421   93.1739   10.0891 C.3     1  UNL1        0.1183
     33 C          66.7287   92.1087    9.7721 C.3     1  UNL1        0.0323
     34 C          66.5041   93.5814    9.9473 C.ar    1  UNL1       -0.0069
     35 C          67.6728   94.5215    9.9639 C.ar    1  UNL1       -0.0015
     36 C          67.4483   95.9942   10.1391 C.ar    1  UNL1        0.0203
     37 C          66.0551   96.5268   10.2976 C.ar    1  UNL1        0.0985
     38 N          64.8863   95.5867   10.2810 N.ar    1  UNL1       -0.2471
     39 C          65.1108   94.1140   10.1058 C.ar    1  UNL1        0.0712
@<TRIPOS>BOND
     1    33    34    1
     2    34    35   ar
     3    35    36   ar
     4    36    37   ar
     5    37    38   ar
     6    38    39   ar
     7    39    32    1
     8    32     1    1
     9     1     2    1
    10     2     3    1
    11     3     4    1
    12     4     5    1
    13     5     6    1
    14     4     7    1
    15     7     8    2
    16     7     9   am
    17     9    21    1
    18    21    22   ar
    19    22    23   ar
    20    23    24   ar
    21    24    27    1
    22    27    28    1
    23    28    29    1
    24    29    30    1
    25    30    31    2
    26    24    25   ar
    27    25    26   ar
    28     9    10   am
    29    10    11    2
    30    10    12   am
    31    12    13    1
    32    13    14   ar
    33    14    15   ar
    34    15    16    1
    35    15    17   ar
    36    17    18   ar
    37    18    19   ar
    38    39    34   ar
    39     6     1    1
    40    26    21   ar
    41    19    13   ar
    42    12     4    1
    43    30    27   am
    44    16    20    1
@<TRIPOS>MOLECULE
*****
 39 44 0 0 0
SMALL
GASTEIGER

@<TRIPOS>ATOM
      1 N          59.2230   95.9229   -1.9318 N.3     1  UNL1       -0.2676
      2 C          60.7138   95.9300   -1.7659 C.3     1  UNL1        0.0746
      3 C          61.3471   95.1635   -0.6429 C.3     1  UNL1        0.0449
      4 C          60.4896   94.3898    0.3143 C.3     1  UNL1        0.1391
      5 C          58.9989   94.3827    0.1484 C.3     1  UNL1        0.0449
      6 C          58.3656   95.1492   -0.9746 C.3     1  UNL1        0.0746
      7 C          59.7650   93.5745    1.3440 C.2     1  UNL1        0.2529
      8 O          58.2799   93.3826    1.4315 O.2     1  UNL1       -0.2724
      9 N          60.7863   92.9847    2.2710 N.am    1  UNL1       -0.1907
     10 C          62.1421   93.4355    1.8141 C.2     1  UNL1        0.3219
     11 O          63.4513   93.0803    2.4541 O.2     1  UNL1       -0.2512
     12 N          61.9588   94.3039    0.6049 N.am    1  UNL1       -0.2222
     13 C          63.0524   94.9695   -0.1767 C.ar    1  UNL1        0.1453
     14 C          63.4681   94.4148   -1.5069 C.ar    1  UNL1        0.0922
     15 C          64.5618   95.0805   -2.2884 C.ar    1  UNL1        0.2259
     16 O          64.9775   94.5259   -3.6186 O.3     1  UNL1       -0.4919
     17 N          65.2398   96.3009   -1.7397 N.ar    1  UNL1       -0.1894
     18 C          64.8240   96.8556   -0.4095 C.ar    1  UNL1        0.2027
     19 N          63.7304   96.1899    0.3720 N.ar    1  UNL1       -0.2084
     20 H          64.5540   93.7635   -3.9614 H       1  UNL1        0.2938
     21 C          60.5018   92.0995    3.4481 C.ar    1  UNL1        0.0623
     22 C          61.5887   91.2373    4.0181 C.ar    1  UNL1        0.0166
     23 C          61.3042   90.3522    5.1952 C.ar    1  UNL1        0.0162
     24 C          59.9328   90.3293    5.8022 C.ar    1  UNL1        0.0539
     25 C          58.8458   91.1915    5.2321 C.ar    1  UNL1        0.0162
     26 C          59.1303   92.0767    4.0551 C.ar    1  UNL1        0.0166
     27 N          59.6482   89.4441    6.9793 N.am    1  UNL1       -0.2581
     28 C          58.7674   88.2549    7.2238 C.3     1  UNL1        0.1078
     29 C          59.2459   88.1924    8.6440 C.3     1  UNL1        0.1074
     30 C          60.1267   89.3816    8.3996 C.2     1  UNL1        0.2311
     31 O          61.0879   90.1784    9.2311 O.2     1  UNL1       -0.2745
     32 C          58.5897   96.6895   -3.0549 C.3     1  UNL1        0.1183
     33 C          58.9452   94.2967   -4.8292 C.3     1  UNL1        0.0323
     34 C          57.5893   94.9187   -4.6715 C.ar    1  UNL1       -0.0069
     35 C          56.4113   94.3443   -5.4010 C.ar    1  UNL1       -0.0015
     36 C          55.0554   94.9662   -5.2433 C.ar    1  UNL1        0.0203
     37 C          54.8776   96.1625   -4.3561 C.ar    1  UNL1        0.0985
     38 N          56.0557   96.7370   -3.6266 N.ar    1  UNL1       -0.2471
     39 C          57.4116   96.1151   -3.7843 C.ar    1  UNL1        0.0712
@<TRIPOS>BOND
     1    33    34    1
     2    34    35   ar
     3    35    36   ar
     4    36    37   ar
     5    37    38   ar
     6    38    39   ar
     7    39    32    1
     8    32     1    1
     9     1     2    1
    10     2     3    1
    11     3     4    1
    12     4     5    1
    13     5     6    1
    14     4     7    1
    15     7     8    2
    16     7     9   am
    17     9    21    1
    18    21    22   ar
    19    22    23   ar
    20    23    24   ar
    21    24    27    1
    22    27    28    1
    23    28    29    1
    24    29    30    1
    25    30    31    2
    26    24    25   ar
    27    25    26   ar
    28     9    10   am
    29    10    11    2
    30    10    12   am
    31    12    13    1
    32    13    14   ar
    33    14    15   ar
    34    15    16    1
    35    15    17   ar
    36    17    18   ar
    37    18    19   ar
    38    39    34   ar
    39     6     1    1
    40    26    21   ar
    41    19    13   ar
    42    12     4    1
    43    30    27   am
    44    16    20    1
@<TRIPOS>MOLECULE
*****
 39 44 0 0 0
SMALL
GASTEIGER

@<TRIPOS>ATOM
      1 N          64.2311   89.3269   14.2727 N.3     1  UNL1       -0.2676
      2 C          63.2382   89.5920   13.1801 C.3     1  UNL1        0.0746
      3 C          62.6964   88.4541   12.3667 C.3     1  UNL1        0.0449
      4 C          63.1475   87.0510   12.6460 C.3     1  UNL1        0.1391
      5 C          64.1404   86.7859   13.7386 C.3     1  UNL1        0.0449
      6 C          64.6822   87.9238   14.5520 C.3     1  UNL1        0.0746
      7 C          63.5036   85.6030   12.8087 C.2     1  UNL1        0.2529
      8 O          64.4639   85.0386   13.8133 O.2     1  UNL1       -0.2724
      9 N          62.7306   84.8183   11.7903 N.am    1  UNL1       -0.1907
     10 C          61.8969   85.7815   10.9982 C.2     1  UNL1        0.3219
     11 O          60.9686   85.4270    9.8747 O.2     1  UNL1       -0.2512
     12 N          62.1546   87.1613   11.5270 N.am    1  UNL1       -0.2222
     13 C          61.5291   88.4289   11.0251 C.ar    1  UNL1        0.1453
     14 C          60.2980   88.9716   11.6883 C.ar    1  UNL1        0.0922
     15 C          59.6726   90.2392   11.1863 C.ar    1  UNL1        0.2259
     16 O          58.4414   90.7819   11.8494 O.3     1  UNL1       -0.4919
     17 N          60.2783   90.9642   10.0212 N.ar    1  UNL1       -0.1894
     18 C          61.5095   90.4216    9.3580 C.ar    1  UNL1        0.2027
     19 N          62.1349   89.1540    9.8600 N.ar    1  UNL1       -0.2084
     20 H          58.0630   90.3290   12.5772 H       1  UNL1        0.2938
     21 C          62.7824   83.3316   11.5978 C.ar    1  UNL1        0.0623
     22 C          63.2574   82.7601   10.2950 C.ar    1  UNL1        0.0166
     23 C          63.3091   81.2735   10.1025 C.ar    1  UNL1        0.0162
     24 C          62.8858   80.3583   11.2129 C.ar    1  UNL1        0.0539
     25 C          62.4108   80.9298   12.5159 C.ar    1  UNL1        0.0162
     26 C          62.3590   82.4165   12.7084 C.ar    1  UNL1        0.0166
     27 N          62.9375   78.8716   11.0204 N.am    1  UNL1       -0.2581
     28 C          62.4491   77.6840   11.7958 C.3     1  UNL1        0.1078
     29 C          63.0107   76.7691   10.7482 C.3     1  UNL1        0.1074
     30 C          63.4991   77.9566    9.9728 C.2     1  UNL1        0.2311
     31 O          64.2416   78.1493    8.6838 O.2     1  UNL1       -0.2745
     32 C          64.7729   90.4648   15.0861 C.3     1  UNL1        0.1183
     33 C          66.5416   92.3540   16.6037 C.3     1  UNL1        0.0323
     34 C          66.2287   92.6155   15.1601 C.ar    1  UNL1       -0.0069
     35 C          66.8001   93.8215   14.4754 C.ar    1  UNL1       -0.0015
     36 C          66.4872   94.0830   13.0319 C.ar    1  UNL1        0.0203
     37 C          65.6029   93.1384   12.2731 C.ar    1  UNL1        0.0985
     38 N          65.0314   91.9323   12.9579 N.ar    1  UNL1       -0.2471
     39 C          65.3443   91.6708   14.4014 C.ar    1  UNL1        0.0712
@<TRIPOS>BOND
     1    33    34    1
     2    34    35   ar
     3    35    36   ar
     4    36    37   ar
     5    37    38   ar
     6    38    39   ar
     7    39    32    1
     8    32     1    1
     9     1     2    1
    10     2     3    1
    11     3     4    1
    12     4     5    1
    13     5     6    1
    14     4     7    1
    15     7     8    2
    16     7     9   am
    17     9    21    1
    18    21    22   ar
    19    22    23   ar
    20    23    24   ar
    21    24    27    1
    22    27    28    1
    23    28    29    1
    24    29    30    1
    25    30    31    2
    26    24    25   ar
    27    25    26   ar
    28     9    10   am
    29    10    11    2
    30    10    12   am
    31    12    13    1
    32    13    14   ar
    33    14    15   ar
    34    15    16    1
    35    15    17   ar
    36    17    18   ar
    37    18    19   ar
    38    39    34   ar
    39     6     1    1
    40    26    21   ar
    41    19    13   ar
    42    12     4    1
    43    30    27   am
    44    16    20    1
@<TRIPOS>MOLECULE
*****
 39 44 0 0 0
SMALL
GASTEIGER

@<TRIPOS>ATOM
      1 N          62.2674   84.6856   12.6912 N.3     1  UNL1       -0.2676
      2 C          61.6261   85.0509   11.3853 C.3     1  UNL1        0.0746
      3 C          61.8362   86.4171   10.8029 C.3     1  UNL1        0.0449
      4 C          62.6877   87.4180   11.5262 C.3     1  UNL1        0.1391
      5 C          63.3290   87.0527   12.8320 C.3     1  UNL1        0.0449
      6 C          63.1188   85.6865   13.4145 C.3     1  UNL1        0.0746
      7 C          63.5085   88.5179   12.1316 C.2     1  UNL1        0.2529
      8 O          64.2632   88.4447   13.4259 O.2     1  UNL1       -0.2724
      9 N          63.4420   89.7039   11.2156 N.am    1  UNL1       -0.1907
     10 C          62.5801   89.3370   10.0440 C.2     1  UNL1        0.3219
     11 O          62.2436   90.2265    8.8841 O.2     1  UNL1       -0.2512
     12 N          62.1140   87.9242   10.2359 N.am    1  UNL1       -0.2222
     13 C          61.2294   87.1530    9.3018 C.ar    1  UNL1        0.1453
     14 C          61.8297   86.1719    8.3390 C.ar    1  UNL1        0.0922
     15 C          60.9450   85.4007    7.4048 C.ar    1  UNL1        0.2259
     16 O          61.5453   84.4196    6.4421 O.3     1  UNL1       -0.4919
     17 N          59.4600   85.6106    7.4334 N.ar    1  UNL1       -0.1894
     18 C          58.8597   86.5918    8.3962 C.ar    1  UNL1        0.2027
     19 N          59.7444   87.3630    9.3304 N.ar    1  UNL1       -0.2084
     20 H          62.4729   84.2884    6.4242 H       1  UNL1        0.2938
     21 C          64.1186   91.0249   11.4329 C.ar    1  UNL1        0.0623
     22 C          64.2335   92.0037   10.3022 C.ar    1  UNL1        0.0166
     23 C          64.9101   93.3247   10.5196 C.ar    1  UNL1        0.0162
     24 C          65.4718   93.6668   11.8677 C.ar    1  UNL1        0.0539
     25 C          65.3569   92.6879   12.9984 C.ar    1  UNL1        0.0162
     26 C          64.6803   91.3670   12.7811 C.ar    1  UNL1        0.0166
     27 N          66.1484   94.9878   12.0850 N.am    1  UNL1       -0.2581
     28 C          66.5605   95.7831   13.2881 C.3     1  UNL1        0.1078
     29 C          67.1052   96.8559   12.3924 C.3     1  UNL1        0.1074
     30 C          66.6932   96.0605   11.1892 C.2     1  UNL1        0.2311
     31 O          66.7870   96.2567    9.7051 O.2     1  UNL1       -0.2745
     32 C          62.0572   83.3194   13.2737 C.3     1  UNL1        0.1183
     33 C          61.2804   80.6000   14.2746 C.3     1  UNL1        0.0323
     34 C          61.9972   80.7405   12.9644 C.ar    1  UNL1       -0.0069
     35 C          62.3256   79.5213   12.1548 C.ar    1  UNL1       -0.0015
     36 C          63.0424   79.6617   10.8446 C.ar    1  UNL1        0.0203
     37 C          63.4309   81.0213   10.3442 C.ar    1  UNL1        0.0985
     38 N          63.1025   82.2406   11.1539 N.ar    1  UNL1       -0.2471
     39 C          62.3856   82.1002   12.4640 C.ar    1  UNL1        0.0712
@<TRIPOS>BOND
     1    33    34    1
     2    34    35   ar
     3    35    36   ar
     4    36    37   ar
     5    37    38   ar
     6    38    39   ar
     7    39    32    1
     8    32     1    1
     9     1     2    1
    10     2     3    1
    11     3     4    1
    12     4     5    1
    13     5     6    1
    14     4     7    1
    15     7     8    2
    16     7     9   am
    17     9    21    1
    18    21    22   ar
    19    22    23   ar
    20    23    24   ar
    21    24    27    1
    22    27    28    1
    23    28    29    1
    24    29    30    1
    25    30    31    2
    26    24    25   ar
    27    25    26   ar
    28     9    10   am
    29    10    11    2
    30    10    12   am
    31    12    13    1
    32    13    14   ar
    33    14    15   ar
    34    15    16    1
    35    15    17   ar
    36    17    18   ar
    37    18    19   ar
    38    39    34   ar
    39     6     1    1
    40    26    21   ar
    41    19    13   ar
    42    12     4    1
    43    30    27   am
    44    16    20    1
@<TRIPOS>MOLECULE
*****
 39 44 0 0 0
SMALL
GASTEIGER

@<TRIPOS>ATOM
      1 N          62.4828   84.5386   13.4167 N.3     1  UNL1       -0.2676
      2 C          61.8555   85.3608   12.3303 C.3     1  UNL1        0.0746
      3 C          62.2687   86.7898   12.1378 C.3     1  UNL1        0.0449
      4 C          63.3092   87.3966   13.0317 C.3     1  UNL1        0.1391
      5 C          63.9365   86.5744   14.1182 C.3     1  UNL1        0.0449
      6 C          63.5233   85.1454   14.3107 C.3     1  UNL1        0.0746
      7 C          64.3311   88.1360   13.8436 C.2     1  UNL1        0.2529
      8 O          65.1191   87.5761   14.9905 O.2     1  UNL1       -0.2724
      9 N          64.4265   89.5336   13.3072 N.am    1  UNL1       -0.1907
     10 C          63.4636   89.6580   12.1637 C.2     1  UNL1        0.3219
     11 O          63.2319   90.8871   11.3360 O.2     1  UNL1       -0.2512
     12 N          62.7731   88.3373   11.9935 N.am    1  UNL1       -0.2222
     13 C          61.7296   88.0139   10.9656 C.ar    1  UNL1        0.1453
     14 C          62.0772   87.1491    9.7903 C.ar    1  UNL1        0.0922
     15 C          61.0337   86.8258    8.7625 C.ar    1  UNL1        0.2259
     16 O          61.3812   85.9610    7.5872 O.3     1  UNL1       -0.4919
     17 N          59.6425   87.3673    8.9098 N.ar    1  UNL1       -0.1894
     18 C          59.2950   88.2321   10.0851 C.ar    1  UNL1        0.2027
     19 N          60.3385   88.5554   11.1129 N.ar    1  UNL1       -0.2084
     20 H          62.2502   85.6228    7.4951 H       1  UNL1        0.2938
     21 C          65.3267   90.6166   13.8235 C.ar    1  UNL1        0.0623
     22 C          66.3185   91.2683   12.9062 C.ar    1  UNL1        0.0166
     23 C          67.2187   92.3513   13.4225 C.ar    1  UNL1        0.0162
     24 C          67.1272   92.7826   14.8562 C.ar    1  UNL1        0.0539
     25 C          66.1355   92.1309   15.7736 C.ar    1  UNL1        0.0162
     26 C          65.2352   91.0479   15.2572 C.ar    1  UNL1        0.0166
     27 N          68.0275   93.8657   15.3725 N.am    1  UNL1       -0.2581
     28 C          68.0626   95.3607   15.2567 C.3     1  UNL1        0.1078
     29 C          69.3006   95.3973   16.1027 C.3     1  UNL1        0.1074
     30 C          69.2656   93.9021   16.2186 C.2     1  UNL1        0.2311
     31 O          70.1162   92.8708   16.8987 O.2     1  UNL1       -0.2745
     32 C          62.0696   83.1094   13.6092 C.3     1  UNL1        0.1183
     33 C          61.4862   80.2122   14.1247 C.3     1  UNL1        0.0323
     34 C          62.1574   80.6267   12.8488 C.ar    1  UNL1       -0.0069
     35 C          62.5368   79.5926   11.8307 C.ar    1  UNL1       -0.0015
     36 C          63.2079   80.0071   10.5548 C.ar    1  UNL1        0.0203
     37 C          63.4996   81.4556   10.2971 C.ar    1  UNL1        0.0985
     38 N          63.1202   82.4898   11.3153 N.ar    1  UNL1       -0.2471
     39 C          62.4490   82.0753   12.5911 C.ar    1  UNL1        0.0712
@<TRIPOS>BOND
     1    33    34    1
     2    34    35   ar
     3    35    36   ar
     4    36    37   ar
     5    37    38   ar
     6    38    39   ar
     7    39    32    1
     8    32     1    1
     9     1     2    1
    10     2     3    1
    11     3     4    1
    12     4     5    1
    13     5     6    1
    14     4     7    1
    15     7     8    2
    16     7     9   am
    17     9    21    1
    18    21    22   ar
    19    22    23   ar
    20    23    24   ar
    21    24    27    1
    22    27    28    1
    23    28    29    1
    24    29    30    1
    25    30    31    2
    26    24    25   ar
    27    25    26   ar
    28     9    10   am
    29    10    11    2
    30    10    12   am
    31    12    13    1
    32    13    14   ar
    33    14    15   ar
    34    15    16    1
    35    15    17   ar
    36    17    18   ar
    37    18    19   ar
    38    39    34   ar
    39     6     1    1
    40    26    21   ar
    41    19    13   ar
    42    12     4    1
    43    30    27   am
    44    16    20    1
