@<TRIPOS>MOLECULE
*****
 33 36 0 0 0
SMALL
GASTEIGER

@<TRIPOS>ATOM
      1 C          63.9596   89.1196   14.3222 C.ar    1  UNL1        0.0187
      2 C          63.7244   89.3042   15.7921 C.ar    1  UNL1        0.0031
      3 C          63.3979   88.1207   16.6538 C.ar    1  UNL1        0.0208
      4 C          63.3067   86.7526   16.0457 C.ar    1  UNL1        0.1017
      5 N          63.0046   85.4085   16.6393 N.ar    1  UNL1       -0.2126
      6 C          63.0532   84.3932   15.5363 C.ar    1  UNL1        0.2143
      7 N          62.8120   82.9199   15.6828 N.pl3   1  UNL1       -0.3275
      8 N          63.3852   85.1097   14.2610 N.ar    1  UNL1       -0.1822
      9 C          63.5419   86.5679   14.5759 C.ar    1  UNL1        0.1026
     10 C          63.8684   87.7514   13.7141 C.ar    1  UNL1        0.0220
     11 H          62.5992   82.5414   16.5663 H       1  UNL1        0.1451
     12 H          62.8666   82.3315   14.8953 H       1  UNL1        0.1451
     13 C          65.3190   92.3329   12.6215 C.ar    1  UNL1        0.1170
     14 N          64.2579   91.9157   11.6467 N.ar    1  UNL1       -0.2312
     15 C          63.6195   90.6613   12.1652 C.ar    1  UNL1        0.0980
     16 C          64.2861   90.3031   13.4604 C.ar    1  UNL1        0.0753
     17 N          65.3364   91.3362   13.7424 N.ar    1  UNL1       -0.3408
     18 H          65.9325   91.3566   14.5256 H       1  UNL1        0.1671
     19 C          62.5096   89.8988   11.5044 C.ar    1  UNL1        0.0193
     20 C          62.8049   89.0056   10.3362 C.ar    1  UNL1        0.0038
     21 C          61.6949   88.2431    9.6755 C.ar    1  UNL1        0.0297
     22 C          60.2895   88.3739   10.1830 C.ar    1  UNL1        0.1401
     23 F          59.1795   87.6115    9.5223 F       1  UNL1       -0.2042
     24 C          59.9940   89.2673   11.3513 C.ar    1  UNL1        0.0297
     25 C          61.1041   90.0296   12.0119 C.ar    1  UNL1        0.0038
     26 C          66.0584   94.4593   11.3247 C.3     1  UNL1        0.0084
     27 C          66.2068   93.5356   12.4972 C.3     1  UNL1        0.0637
     28 S          63.5344   84.4789   12.9083 S.O2    1  UNL1        0.0667
     29 O          64.7802   83.7827   13.3704 O.2     1  UNL1       -0.1521
     30 O          62.2887   85.1750   12.4463 O.2     1  UNL1       -0.1521
     31 C          63.6836   83.8480   11.5556 C.3     1  UNL1        0.1516
     32 C          63.1089   84.5233   10.3457 C.3     1  UNL1        0.0275
     33 C          64.4073   82.5420   11.4127 C.3     1  UNL1        0.0275
@<TRIPOS>BOND
     1    26    27    1
     2    27    13    1
     3    13    14   ar
     4    14    15   ar
     5    15    19    1
     6    19    20   ar
     7    20    21   ar
     8    21    22   ar
     9    22    23    1
    10    22    24   ar
    11    24    25   ar
    12    15    16   ar
    13    16     1    1
    14     1     2   ar
    15     2     3   ar
    16     3     4   ar
    17     4     5   ar
    18     5     6   ar
    19     6     7    1
    20     6     8   ar
    21     8    28    1
    22    28    29    2
    23    28    30    2
    24    28    31    1
    25    31    32    1
    26    31    33    1
    27     8     9   ar
    28     9    10   ar
    29    16    17   ar
    30    17    13   ar
    31    25    19   ar
    32    10     1   ar
    33     9     4   ar
    34     7    11    1
    35     7    12    1
    36    17    18    1
@<TRIPOS>MOLECULE
*****
 33 36 0 0 0
SMALL
GASTEIGER

@<TRIPOS>ATOM
      1 C          62.9031   89.9873   12.1007 C.ar    1  UNL1        0.0187
      2 C          62.5699   89.8198   13.5536 C.ar    1  UNL1        0.0031
      3 C          63.3767   90.5362   14.5955 C.ar    1  UNL1        0.0208
      4 C          64.5168   91.4201   14.1845 C.ar    1  UNL1        0.1017
      5 N          65.4829   92.2472   14.9801 N.ar    1  UNL1       -0.2126
      6 C          66.4133   92.9257   14.0188 C.ar    1  UNL1        0.2143
      7 N          67.5374   93.8497   14.3831 N.pl3   1  UNL1       -0.3275
      8 N          66.0221   92.5181   12.6293 N.ar    1  UNL1       -0.1822
      9 C          64.8501   91.5876   12.7317 C.ar    1  UNL1        0.1026
     10 C          64.0432   90.8712   11.6898 C.ar    1  UNL1        0.0220
     11 H          67.7169   94.0578   15.3285 H       1  UNL1        0.1451
     12 H          68.0957   94.2481   13.6769 H       1  UNL1        0.1451
     13 C          60.6504   88.8270    9.1605 C.ar    1  UNL1        0.1170
     14 N          61.0589   87.5095    9.7500 N.ar    1  UNL1       -0.2312
     15 C          61.9525   87.7839   10.9232 C.ar    1  UNL1        0.0980
     16 C          62.0963   89.2708   11.0587 C.ar    1  UNL1        0.0753
     17 N          61.2915   89.9155    9.9693 N.ar    1  UNL1       -0.3408
     18 H          61.2002   90.8831    9.8126 H       1  UNL1        0.1671
     19 C          62.5903   86.7523   11.8058 C.ar    1  UNL1        0.0193
     20 C          62.3496   85.2940   11.5501 C.ar    1  UNL1        0.0038
     21 C          62.9874   84.2625   12.4328 C.ar    1  UNL1        0.0297
     22 C          63.8661   84.6892   13.5712 C.ar    1  UNL1        0.1401
     23 F          64.5039   83.6577   14.4538 F       1  UNL1       -0.2042
     24 C          64.1068   86.1476   13.8269 C.ar    1  UNL1        0.0297
     25 C          63.4689   87.1791   12.9442 C.ar    1  UNL1        0.0038
     26 C          59.0101   87.8556    7.3953 C.3     1  UNL1        0.0084
     27 C          59.7576   89.0217    7.9710 C.3     1  UNL1        0.0637
     28 S          66.6864   92.9629   11.3600 S.O2    1  UNL1        0.0667
     29 O          67.9003   92.1553   11.7124 O.2     1  UNL1       -0.1521
     30 O          65.4725   93.7704   11.0077 O.2     1  UNL1       -0.1521
     31 C          67.3507   93.4077   10.0908 C.3     1  UNL1        0.1516
     32 C          68.2906   92.4850    9.3730 C.3     1  UNL1        0.0275
     33 C          67.0751   94.7751    9.5394 C.3     1  UNL1        0.0275
@<TRIPOS>BOND
     1    26    27    1
     2    27    13    1
     3    13    14   ar
     4    14    15   ar
     5    15    19    1
     6    19    20   ar
     7    20    21   ar
     8    21    22   ar
     9    22    23    1
    10    22    24   ar
    11    24    25   ar
    12    15    16   ar
    13    16     1    1
    14     1     2   ar
    15     2     3   ar
    16     3     4   ar
    17     4     5   ar
    18     5     6   ar
    19     6     7    1
    20     6     8   ar
    21     8    28    1
    22    28    29    2
    23    28    30    2
    24    28    31    1
    25    31    32    1
    26    31    33    1
    27     8     9   ar
    28     9    10   ar
    29    16    17   ar
    30    17    13   ar
    31    25    19   ar
    32    10     1   ar
    33     9     4   ar
    34     7    11    1
    35     7    12    1
    36    17    18    1
@<TRIPOS>MOLECULE
*****
 33 36 0 0 0
SMALL
GASTEIGER

@<TRIPOS>ATOM
      1 C          63.3277   90.2161   12.2806 C.ar    1  UNL1        0.0187
      2 C          62.3522   91.1919   11.6924 C.ar    1  UNL1        0.0031
      3 C          61.2592   90.7064   10.7872 C.ar    1  UNL1        0.0208
      4 C          61.1417   89.2450   10.4700 C.ar    1  UNL1        0.1017
      5 N          60.1756   88.4775    9.6170 N.ar    1  UNL1       -0.2126
      6 C          60.5540   87.0274    9.6780 C.ar    1  UNL1        0.2143
      7 N          59.8552   85.9033    8.9723 N.pl3   1  UNL1       -0.3275
      8 N          61.7541   86.8986   10.5687 N.ar    1  UNL1       -0.1822
      9 C          62.1173   88.2692   11.0582 C.ar    1  UNL1        0.1026
     10 C          63.2103   88.7547   11.9635 C.ar    1  UNL1        0.0220
     11 H          59.0713   86.0890    8.4063 H       1  UNL1        0.1451
     12 H          60.1804   84.9797    9.0750 H       1  UNL1        0.1451
     13 C          66.2498   92.0080   14.1016 C.ar    1  UNL1        0.1170
     14 N          65.9558   90.8893   15.0566 N.ar    1  UNL1       -0.2312
     15 C          64.8254   90.0818   14.4907 C.ar    1  UNL1        0.0980
     16 C          64.4208   90.7016   13.1859 C.ar    1  UNL1        0.0753
     17 N          65.3011   91.8920   12.9455 N.ar    1  UNL1       -0.3408
     18 H          65.2630   92.4919   12.1658 H       1  UNL1        0.1671
     19 C          64.2080   88.8678   15.1191 C.ar    1  UNL1        0.0193
     20 C          64.5428   87.5014   14.5987 C.ar    1  UNL1        0.0038
     21 C          63.9254   86.2874   15.2272 C.ar    1  UNL1        0.0297
     22 C          62.9731   86.4398   16.3761 C.ar    1  UNL1        0.1401
     23 F          62.3557   85.2257   17.0045 F       1  UNL1       -0.2042
     24 C          62.6382   87.8062   16.8965 C.ar    1  UNL1        0.0297
     25 C          63.2557   89.0202   16.2680 C.ar    1  UNL1        0.0038
     26 C          67.8844   93.3270   15.6308 C.3     1  UNL1        0.0084
     27 C          67.3069   93.0584   14.2727 C.3     1  UNL1        0.0637
     28 S          62.4660   85.6232   10.9100 S.O2    1  UNL1        0.0667
     29 O          62.8856   85.4741    9.4777 O.2     1  UNL1       -0.1521
     30 O          62.0463   85.7722   12.3424 O.2     1  UNL1       -0.1521
     31 C          63.1778   84.3477   11.2514 C.3     1  UNL1        0.1516
     32 C          63.8992   83.5821   10.1821 C.3     1  UNL1        0.0275
     33 C          63.1684   83.8379   12.6620 C.3     1  UNL1        0.0275
@<TRIPOS>BOND
     1    26    27    1
     2    27    13    1
     3    13    14   ar
     4    14    15   ar
     5    15    19    1
     6    19    20   ar
     7    20    21   ar
     8    21    22   ar
     9    22    23    1
    10    22    24   ar
    11    24    25   ar
    12    15    16   ar
    13    16     1    1
    14     1     2   ar
    15     2     3   ar
    16     3     4   ar
    17     4     5   ar
    18     5     6   ar
    19     6     7    1
    20     6     8   ar
    21     8    28    1
    22    28    29    2
    23    28    30    2
    24    28    31    1
    25    31    32    1
    26    31    33    1
    27     8     9   ar
    28     9    10   ar
    29    16    17   ar
    30    17    13   ar
    31    25    19   ar
    32    10     1   ar
    33     9     4   ar
    34     7    11    1
    35     7    12    1
    36    17    18    1
@<TRIPOS>MOLECULE
*****
 33 36 0 0 0
SMALL
GASTEIGER

@<TRIPOS>ATOM
      1 C          63.6251   89.0738   12.2324 C.ar    1  UNL1        0.0187
      2 C          62.9036   89.4461   10.9712 C.ar    1  UNL1        0.0031
      3 C          63.1277   90.7922   10.3485 C.ar    1  UNL1        0.0208
      4 C          64.0731   91.7660   10.9871 C.ar    1  UNL1        0.1017
      5 N          64.4923   93.1550   10.6060 N.ar    1  UNL1       -0.2126
      6 C          65.4728   93.6410   11.6318 C.ar    1  UNL1        0.2143
      7 N          66.1480   94.9805   11.6411 N.pl3   1  UNL1       -0.3275
      8 N          65.6596   92.5525   12.6469 N.ar    1  UNL1       -0.1822
      9 C          64.7945   91.3937   12.2484 C.ar    1  UNL1        0.1026
     10 C          64.5705   90.0476   12.8711 C.ar    1  UNL1        0.0220
     11 H          65.9595   95.6317   10.9272 H       1  UNL1        0.1451
     12 H          66.7796   95.2084   12.3610 H       1  UNL1        0.1451
     13 C          63.4729   85.8595   14.4030 C.ar    1  UNL1        0.1170
     14 N          62.6398   85.4527   13.2238 N.ar    1  UNL1       -0.2312
     15 C          62.5954   86.6072   12.2672 C.ar    1  UNL1        0.0980
     16 C          63.4011   87.7276   12.8552 C.ar    1  UNL1        0.0753
     17 N          63.9434   87.2655   14.1751 N.ar    1  UNL1       -0.3408
     18 H          64.5089   87.7925   14.7849 H       1  UNL1        0.1671
     19 C          61.8723   86.6363   10.9534 C.ar    1  UNL1        0.0193
     20 C          60.5740   87.3769   10.8280 C.ar    1  UNL1        0.0038
     21 C          59.8509   87.4060    9.5141 C.ar    1  UNL1        0.0297
     22 C          60.4261   86.6943    8.3255 C.ar    1  UNL1        0.1401
     23 F          59.7030   86.7234    7.0117 F       1  UNL1       -0.2042
     24 C          61.7245   85.9536    8.4508 C.ar    1  UNL1        0.0297
     25 C          62.4475   85.9246    9.7648 C.ar    1  UNL1        0.0038
     26 C          63.3597   85.4588   16.9675 C.3     1  UNL1        0.0084
     27 C          63.7814   85.0096   15.5999 C.3     1  UNL1        0.0637
     28 S          66.5543   92.6123   13.8493 S.O2    1  UNL1        0.0667
     29 O          65.3532   92.7583   14.7358 O.2     1  UNL1       -0.1521
     30 O          67.7555   92.4663   12.9628 O.2     1  UNL1       -0.1521
     31 C          67.4492   92.6721   15.0517 C.3     1  UNL1        0.1516
     32 C          68.9385   92.7075   14.8771 C.3     1  UNL1        0.0275
     33 C          66.8547   92.6965   16.4286 C.3     1  UNL1        0.0275
@<TRIPOS>BOND
     1    26    27    1
     2    27    13    1
     3    13    14   ar
     4    14    15   ar
     5    15    19    1
     6    19    20   ar
     7    20    21   ar
     8    21    22   ar
     9    22    23    1
    10    22    24   ar
    11    24    25   ar
    12    15    16   ar
    13    16     1    1
    14     1     2   ar
    15     2     3   ar
    16     3     4   ar
    17     4     5   ar
    18     5     6   ar
    19     6     7    1
    20     6     8   ar
    21     8    28    1
    22    28    29    2
    23    28    30    2
    24    28    31    1
    25    31    32    1
    26    31    33    1
    27     8     9   ar
    28     9    10   ar
    29    16    17   ar
    30    17    13   ar
    31    25    19   ar
    32    10     1   ar
    33     9     4   ar
    34     7    11    1
    35     7    12    1
    36    17    18    1
@<TRIPOS>MOLECULE
*****
 33 36 0 0 0
SMALL
GASTEIGER

@<TRIPOS>ATOM
      1 C          63.5595   86.8597   14.6155 C.ar    1  UNL1        0.0187
      2 C          62.9692   86.6815   15.9828 C.ar    1  UNL1        0.0031
      3 C          62.9214   87.8389   16.9357 C.ar    1  UNL1        0.0208
      4 C          63.4639   89.1746   16.5213 C.ar    1  UNL1        0.1017
      5 N          63.5530   90.4884   17.2395 N.ar    1  UNL1       -0.2126
      6 C          64.1985   91.4787   16.3160 C.ar    1  UNL1        0.2143
      7 N          64.4841   92.9181   16.6269 N.pl3   1  UNL1       -0.3275
      8 N          64.5082   90.7768   15.0270 N.ar    1  UNL1       -0.1822
      9 C          64.0542   89.3528   15.1539 C.ar    1  UNL1        0.1026
     10 C          64.1020   88.1954   14.2010 C.ar    1  UNL1        0.0220
     11 H          64.2423   93.2892   17.5061 H       1  UNL1        0.1451
     12 H          64.9133   93.4917   15.9517 H       1  UNL1        0.1451
     13 C          64.0566   83.5180   12.7047 C.ar    1  UNL1        0.1170
     14 N          63.3052   84.3245   11.6873 N.ar    1  UNL1       -0.2312
     15 C          63.0276   85.6745   12.2793 C.ar    1  UNL1        0.0980
     16 C          63.6073   85.7023   13.6625 C.ar    1  UNL1        0.0753
     17 N          64.2433   84.3695   13.9254 N.ar    1  UNL1       -0.3408
     18 H          64.7026   84.1007   14.7537 H       1  UNL1        0.1671
     19 C          62.2983   86.7993   11.6063 C.ar    1  UNL1        0.0193
     20 C          60.9686   86.5497   10.9585 C.ar    1  UNL1        0.0038
     21 C          60.2393   87.6744   10.2854 C.ar    1  UNL1        0.0297
     22 C          60.8396   89.0488   10.2602 C.ar    1  UNL1        0.1401
     23 F          60.1103   90.1736    9.5871 F       1  UNL1       -0.2042
     24 C          62.1694   89.2985   10.9080 C.ar    1  UNL1        0.0297
     25 C          62.8986   88.1737   11.5810 C.ar    1  UNL1        0.0038
     26 C          63.8388   80.9851   13.2409 C.3     1  UNL1        0.0084
     27 C          64.5369   82.1075   12.5317 C.3     1  UNL1        0.0637
     28 S          65.1578   91.3910   13.8226 S.O2    1  UNL1        0.0667
     29 O          63.8178   91.5063   13.1586 O.2     1  UNL1       -0.1521
     30 O          66.4979   91.2758   14.4867 O.2     1  UNL1       -0.1521
     31 C          65.8076   92.0053   12.6182 C.3     1  UNL1        0.1516
     32 C          65.0056   92.2439   11.3733 C.3     1  UNL1        0.0275
     33 C          67.2591   92.3809   12.6588 C.3     1  UNL1        0.0275
@<TRIPOS>BOND
     1    26    27    1
     2    27    13    1
     3    13    14   ar
     4    14    15   ar
     5    15    19    1
     6    19    20   ar
     7    20    21   ar
     8    21    22   ar
     9    22    23    1
    10    22    24   ar
    11    24    25   ar
    12    15    16   ar
    13    16     1    1
    14     1     2   ar
    15     2     3   ar
    16     3     4   ar
    17     4     5   ar
    18     5     6   ar
    19     6     7    1
    20     6     8   ar
    21     8    28    1
    22    28    29    2
    23    28    30    2
    24    28    31    1
    25    31    32    1
    26    31    33    1
    27     8     9   ar
    28     9    10   ar
    29    16    17   ar
    30    17    13   ar
    31    25    19   ar
    32    10     1   ar
    33     9     4   ar
    34     7    11    1
    35     7    12    1
    36    17    18    1
@<TRIPOS>MOLECULE
*****
 33 36 0 0 0
SMALL
GASTEIGER

@<TRIPOS>ATOM
      1 C          62.9185   87.7423   12.2030 C.ar    1  UNL1        0.0187
      2 C          63.5433   88.5423   13.3073 C.ar    1  UNL1        0.0031
      3 C          64.2233   87.8437   14.4473 C.ar    1  UNL1        0.0208
      4 C          64.2784   86.3451   14.4829 C.ar    1  UNL1        0.1017
      5 N          64.8752   85.3859   15.4697 N.ar    1  UNL1       -0.2126
      6 C          64.6192   83.9931   14.9752 C.ar    1  UNL1        0.2143
      7 N          65.0437   82.7245   15.6539 N.pl3   1  UNL1       -0.3275
      8 N          63.8642   84.0915   13.6828 N.ar    1  UNL1       -0.1822
      9 C          63.6536   85.5452   13.3785 C.ar    1  UNL1        0.1026
     10 C          62.9737   86.2438   12.2386 C.ar    1  UNL1        0.0220
     11 H          65.5381   82.7629   16.5044 H       1  UNL1        0.1451
     12 H          64.8278   81.8535   15.2489 H       1  UNL1        0.1451
     13 C          60.7843   88.9009    9.1750 C.ar    1  UNL1        0.1170
     14 N          61.5999   90.1311    9.4424 N.ar    1  UNL1       -0.2312
     15 C          62.4986   89.8468   10.6092 C.ar    1  UNL1        0.0980
     16 C          62.2385   88.4409   11.0629 C.ar    1  UNL1        0.0753
     17 N          61.1790   87.8563   10.1765 N.ar    1  UNL1       -0.3408
     18 H          60.8079   86.9467   10.2408 H       1  UNL1        0.1671
     19 C          63.4843   90.8009   11.2158 C.ar    1  UNL1        0.0193
     20 C          63.5904   90.9223   12.7071 C.ar    1  UNL1        0.0038
     21 C          64.5762   91.8764   13.3137 C.ar    1  UNL1        0.0297
     22 C          65.4558   92.7092   12.4290 C.ar    1  UNL1        0.1401
     23 F          66.4416   93.6633   13.0356 F       1  UNL1       -0.2042
     24 C          65.3497   92.5879   10.9376 C.ar    1  UNL1        0.0297
     25 C          64.3640   91.6337   10.3311 C.ar    1  UNL1        0.0038
     26 C          59.2224   87.3813    7.7603 C.3     1  UNL1        0.0084
     27 C          59.7548   88.7429    8.0955 C.3     1  UNL1        0.0637
     28 S          63.4011   82.9387   12.8422 S.O2    1  UNL1        0.0667
     29 O          64.4749   83.2391   11.8388 O.2     1  UNL1       -0.1521
     30 O          62.3274   82.6384   13.8456 O.2     1  UNL1       -0.1521
     31 C          62.9380   81.7859   12.0016 C.3     1  UNL1        0.1516
     32 C          63.1218   81.8214   10.5133 C.3     1  UNL1        0.0275
     33 C          62.2911   80.5977   12.6492 C.3     1  UNL1        0.0275
@<TRIPOS>BOND
     1    26    27    1
     2    27    13    1
     3    13    14   ar
     4    14    15   ar
     5    15    19    1
     6    19    20   ar
     7    20    21   ar
     8    21    22   ar
     9    22    23    1
    10    22    24   ar
    11    24    25   ar
    12    15    16   ar
    13    16     1    1
    14     1     2   ar
    15     2     3   ar
    16     3     4   ar
    17     4     5   ar
    18     5     6   ar
    19     6     7    1
    20     6     8   ar
    21     8    28    1
    22    28    29    2
    23    28    30    2
    24    28    31    1
    25    31    32    1
    26    31    33    1
    27     8     9   ar
    28     9    10   ar
    29    16    17   ar
    30    17    13   ar
    31    25    19   ar
    32    10     1   ar
    33     9     4   ar
    34     7    11    1
    35     7    12    1
    36    17    18    1
@<TRIPOS>MOLECULE
*****
 33 36 0 0 0
SMALL
GASTEIGER

@<TRIPOS>ATOM
      1 C          64.4697   91.2466   12.1564 C.ar    1  UNL1        0.0187
      2 C          63.8159   92.0406   11.0646 C.ar    1  UNL1        0.0031
      3 C          62.8079   91.3896   10.1646 C.ar    1  UNL1        0.0208
      4 C          62.4536   89.9447   10.3564 C.ar    1  UNL1        0.1017
      5 N          61.5035   89.0393    9.6300 N.ar    1  UNL1       -0.2126
      6 C          61.5701   87.6857   10.2730 C.ar    1  UNL1        0.2143
      7 N          60.7835   86.4757    9.8641 N.pl3   1  UNL1       -0.3275
      8 N          62.5614   87.7547   11.3967 N.ar    1  UNL1       -0.1822
      9 C          63.1074   89.1508   11.4482 C.ar    1  UNL1        0.1026
     10 C          64.1154   89.8017   12.3483 C.ar    1  UNL1        0.0220
     11 H          60.1538   86.5298    9.1093 H       1  UNL1        0.1451
     12 H          60.8971   85.6273   10.3506 H       1  UNL1        0.1451
     13 C          66.8357   92.4324   14.9958 C.ar    1  UNL1        0.1170
     14 N          67.2225   93.3661   13.8873 N.ar    1  UNL1       -0.2312
     15 C          66.3832   93.0355   12.6888 C.ar    1  UNL1        0.0980
     16 C          65.4778   91.8975   13.0565 C.ar    1  UNL1        0.0753
     17 N          65.7574   91.5248   14.4823 N.ar    1  UNL1       -0.3408
     18 H          65.3115   90.8100   14.9916 H       1  UNL1        0.1671
     19 C          66.4396   93.7224   11.3565 C.ar    1  UNL1        0.0193
     20 C          65.7926   95.0636   11.1761 C.ar    1  UNL1        0.0038
     21 C          65.8490   95.7504    9.8438 C.ar    1  UNL1        0.0297
     22 C          66.5523   95.0960    8.6918 C.ar    1  UNL1        0.1401
     23 F          66.6086   95.7828    7.3595 F       1  UNL1       -0.2042
     24 C          67.1993   93.7547    8.8721 C.ar    1  UNL1        0.0297
     25 C          67.1429   93.0680   10.2045 C.ar    1  UNL1        0.0038
     26 C          68.9116   92.4697   16.5576 C.3     1  UNL1        0.0084
     27 C          67.4239   92.4102   16.3755 C.3     1  UNL1        0.0637
     28 S          62.9401   86.6257   12.3088 S.O2    1  UNL1        0.0667
     29 O          62.5223   85.6381   11.2599 O.2     1  UNL1       -0.1521
     30 O          63.3579   87.6132   13.3577 O.2     1  UNL1       -0.1521
     31 C          63.3189   85.4967   13.2210 C.3     1  UNL1        0.1516
     32 C          62.8225   84.1088   12.9426 C.3     1  UNL1        0.0275
     33 C          64.1940   85.7555   14.4114 C.3     1  UNL1        0.0275
@<TRIPOS>BOND
     1    26    27    1
     2    27    13    1
     3    13    14   ar
     4    14    15   ar
     5    15    19    1
     6    19    20   ar
     7    20    21   ar
     8    21    22   ar
     9    22    23    1
    10    22    24   ar
    11    24    25   ar
    12    15    16   ar
    13    16     1    1
    14     1     2   ar
    15     2     3   ar
    16     3     4   ar
    17     4     5   ar
    18     5     6   ar
    19     6     7    1
    20     6     8   ar
    21     8    28    1
    22    28    29    2
    23    28    30    2
    24    28    31    1
    25    31    32    1
    26    31    33    1
    27     8     9   ar
    28     9    10   ar
    29    16    17   ar
    30    17    13   ar
    31    25    19   ar
    32    10     1   ar
    33     9     4   ar
    34     7    11    1
    35     7    12    1
    36    17    18    1
@<TRIPOS>MOLECULE
*****
 33 36 0 0 0
SMALL
GASTEIGER

@<TRIPOS>ATOM
      1 C          63.8464   85.5946   13.6843 C.ar    1  UNL1        0.0187
      2 C          64.8120   85.7892   14.8156 C.ar    1  UNL1        0.0031
      3 C          65.1986   87.1744   15.2417 C.ar    1  UNL1        0.0208
      4 C          64.6196   88.3651   14.5366 C.ar    1  UNL1        0.1017
      5 N          64.8125   89.8397   14.7330 N.ar    1  UNL1       -0.2126
      6 C          63.9660   90.5564   13.7231 C.ar    1  UNL1        0.2143
      7 N          63.8550   92.0436   13.5620 N.pl3   1  UNL1       -0.3275
      8 N          63.2501   89.5247   12.9026 N.ar    1  UNL1       -0.1822
      9 C          63.6541   88.1705   13.4053 C.ar    1  UNL1        0.1026
     10 C          63.2675   86.7853   12.9792 C.ar    1  UNL1        0.0220
     11 H          64.3674   92.6423   14.1522 H       1  UNL1        0.1451
     12 H          63.2697   92.4210   12.8662 H       1  UNL1        0.1451
     13 C          63.1530   81.8019   13.2374 C.ar    1  UNL1        0.1170
     14 N          62.5765   82.3535   11.9672 N.ar    1  UNL1       -0.2312
     15 C          62.7661   83.8414   11.9801 C.ar    1  UNL1        0.0980
     16 C          63.4598   84.2093   13.2582 C.ar    1  UNL1        0.0753
     17 N          63.6989   82.9488   14.0352 N.ar    1  UNL1       -0.3408
     18 H          64.1372   82.8854   14.9145 H       1  UNL1        0.1671
     19 C          62.3373   84.7942   10.9038 C.ar    1  UNL1        0.0193
     20 C          63.0245   84.7783    9.5706 C.ar    1  UNL1        0.0038
     21 C          62.5957   85.7310    8.4943 C.ar    1  UNL1        0.0297
     22 C          61.4796   86.6997    8.7512 C.ar    1  UNL1        0.1401
     23 F          61.0508   87.6525    7.6749 F       1  UNL1       -0.2042
     24 C          60.7923   86.7157   10.0845 C.ar    1  UNL1        0.0297
     25 C          61.2212   85.7629   11.1607 C.ar    1  UNL1        0.0038
     26 C          62.0349   79.4570   13.2771 C.3     1  UNL1        0.0084
     27 C          63.1791   80.3569   13.6392 C.3     1  UNL1        0.0637
     28 S          62.2975   89.7992   11.7769 S.O2    1  UNL1        0.0667
     29 O          63.4514   90.1562   10.8875 O.2     1  UNL1       -0.1521
     30 O          61.1436   89.4422   12.6664 O.2     1  UNL1       -0.1521
     31 C          61.3448   90.0737   10.6512 C.3     1  UNL1        0.1516
     32 C          61.8647   90.2535    9.2558 C.3     1  UNL1        0.0275
     33 C          59.8724   90.1682   10.9210 C.3     1  UNL1        0.0275
@<TRIPOS>BOND
     1    26    27    1
     2    27    13    1
     3    13    14   ar
     4    14    15   ar
     5    15    19    1
     6    19    20   ar
     7    20    21   ar
     8    21    22   ar
     9    22    23    1
    10    22    24   ar
    11    24    25   ar
    12    15    16   ar
    13    16     1    1
    14     1     2   ar
    15     2     3   ar
    16     3     4   ar
    17     4     5   ar
    18     5     6   ar
    19     6     7    1
    20     6     8   ar
    21     8    28    1
    22    28    29    2
    23    28    30    2
    24    28    31    1
    25    31    32    1
    26    31    33    1
    27     8     9   ar
    28     9    10   ar
    29    16    17   ar
    30    17    13   ar
    31    25    19   ar
    32    10     1   ar
    33     9     4   ar
    34     7    11    1
    35     7    12    1
    36    17    18    1
