@<TRIPOS>MOLECULE
*****
 30 33 0 0 0
SMALL
GASTEIGER

@<TRIPOS>ATOM
      1 C          59.2704   88.7163    7.2771 C.3     1  UNL1        0.0518
      2 C          60.1655   88.6015    8.4754 C.ar    1  UNL1        0.0563
      3 N          60.4717   89.8152    9.3018 N.ar    1  UNL1       -0.2524
      4 C          61.3667   89.7005   10.5000 C.ar    1  UNL1        0.0830
      5 C          61.9556   88.3719   10.8718 C.ar    1  UNL1        0.0686
      6 C          61.6494   87.1581   10.0454 C.ar    1  UNL1        0.0048
      7 C          60.7543   87.2730    8.8471 C.ar    1  UNL1        0.0072
      8 C          62.7972   88.5648   12.0984 C.2     1  UNL1        0.2507
      9 O          63.5715   87.4973   12.8132 O.2     1  UNL1       -0.2698
     10 N          62.7284   90.0125   12.4847 N.am    1  UNL1       -0.2662
     11 C          61.8444   90.7145   11.4968 C.3     1  UNL1        0.1400
     12 C          62.2382   85.8295   10.4171 C.ar    1  UNL1        0.0106
     13 C          61.9222   85.2153   11.7486 C.ar    1  UNL1        0.0017
     14 C          62.5109   83.8867   12.1204 C.ar    1  UNL1        0.0114
     15 C          63.4157   83.1724   11.1606 C.ar    1  UNL1        0.0585
     16 CL         64.0045   81.8439   11.5324 Cl      1  UNL1       -0.0822
     17 C          63.7317   83.7867    9.8292 C.ar    1  UNL1        0.0228
     18 C          63.1430   85.1152    9.4574 C.ar    1  UNL1        0.0585
     19 CL         63.4590   85.7295    8.1259 Cl      1  UNL1       -0.0822
     20 C          60.4480   86.0592    8.0207 C.3     1  UNL1        0.0934
     21 N          59.0614   85.8426    7.4913 N.3     1  UNL1       -0.3174
     22 H          58.4211   85.6852    8.2695 H       1  UNL1        0.1192
     23 H          59.0555   85.0289    6.8762 H       1  UNL1        0.1192
     24 C          63.4220   90.6471   13.6536 C.3     1  UNL1        0.1208
     25 C          64.7950   91.2275   13.4863 C.ar    1  UNL1       -0.0023
     26 C          65.8325   91.0178   14.5491 C.ar    1  UNL1       -0.0026
     27 C          67.2055   91.5983   14.3818 C.ar    1  UNL1       -0.0003
     28 C          67.5410   92.3885   13.1517 C.ar    1  UNL1       -0.0000
     29 C          66.5033   92.5981   12.0889 C.ar    1  UNL1       -0.0003
     30 C          65.1304   92.0177   12.2562 C.ar    1  UNL1       -0.0026
@<TRIPOS>BOND
     1     1     2    1
     2     2     3   ar
     3     3     4   ar
     4     4     5   ar
     5     5     6   ar
     6     6    12    1
     7    12    13   ar
     8    13    14   ar
     9    14    15   ar
    10    15    16    1
    11    15    17   ar
    12    17    18   ar
    13    18    19    1
    14     6     7   ar
    15     7    20    1
    16    20    21    1
    17     5     8    1
    18     8     9    2
    19     8    10   am
    20    10    24    1
    21    24    25    1
    22    25    26   ar
    23    26    27   ar
    24    27    28   ar
    25    28    29   ar
    26    29    30   ar
    27    10    11    1
    28     7     2   ar
    29    30    25   ar
    30    11     4    1
    31    18    12   ar
    32    21    22    1
    33    21    23    1
@<TRIPOS>MOLECULE
*****
 30 33 0 0 0
SMALL
GASTEIGER

@<TRIPOS>ATOM
      1 C          64.4632   91.9604   13.0951 C.3     1  UNL1        0.0518
      2 C          64.0914   90.5078   13.0514 C.ar    1  UNL1        0.0563
      3 N          64.6205   89.5667   14.0928 N.ar    1  UNL1       -0.2524
      4 C          64.2488   88.1141   14.0492 C.ar    1  UNL1        0.0830
      5 C          63.3481   87.6026   12.9642 C.ar    1  UNL1        0.0686
      6 C          62.8191   88.5437   11.9228 C.ar    1  UNL1        0.0048
      7 C          63.1908   89.9964   11.9665 C.ar    1  UNL1        0.0072
      8 C          63.1561   86.1302   13.1767 C.2     1  UNL1        0.2507
      9 O          62.3276   85.2168   12.3229 O.2     1  UNL1       -0.2698
     10 N          63.9382   85.7317   14.3931 N.am    1  UNL1       -0.2662
     11 C          64.6135   86.9578   14.9323 C.3     1  UNL1        0.1400
     12 C          61.9184   88.0324   10.8378 C.ar    1  UNL1        0.0106
     13 C          62.4895   87.2358    9.7024 C.ar    1  UNL1        0.0017
     14 C          61.5889   86.7243    8.6173 C.ar    1  UNL1        0.0114
     15 C          60.1171   87.0096    8.6678 C.ar    1  UNL1        0.0585
     16 CL         59.2165   86.4982    7.5827 Cl      1  UNL1       -0.0822
     17 C          59.5460   87.8062    9.8032 C.ar    1  UNL1        0.0228
     18 C          60.4466   88.3176   10.8883 C.ar    1  UNL1        0.0585
     19 CL         59.8755   89.1142   12.0237 Cl      1  UNL1       -0.0822
     20 C          62.6618   90.9375   10.9251 C.3     1  UNL1        0.0934
     21 N          63.6005   91.5756    9.9445 N.3     1  UNL1       -0.3174
     22 H          64.2320   92.2057   10.4391 H       1  UNL1        0.1192
     23 H          63.0651   92.1030    9.2550 H       1  UNL1        0.1192
     24 C          64.0291   84.3497   14.9692 C.3     1  UNL1        0.1208
     25 C          63.5021   83.1782   14.1946 C.ar    1  UNL1       -0.0023
     26 C          64.2716   82.6473   13.0216 C.ar    1  UNL1       -0.0026
     27 C          63.7447   81.4758   12.2471 C.ar    1  UNL1       -0.0003
     28 C          62.4483   80.8351   12.6456 C.ar    1  UNL1       -0.0000
     29 C          61.6788   81.3660   13.8188 C.ar    1  UNL1       -0.0003
     30 C          62.2057   82.5375   14.5933 C.ar    1  UNL1       -0.0026
@<TRIPOS>BOND
     1     1     2    1
     2     2     3   ar
     3     3     4   ar
     4     4     5   ar
     5     5     6   ar
     6     6    12    1
     7    12    13   ar
     8    13    14   ar
     9    14    15   ar
    10    15    16    1
    11    15    17   ar
    12    17    18   ar
    13    18    19    1
    14     6     7   ar
    15     7    20    1
    16    20    21    1
    17     5     8    1
    18     8     9    2
    19     8    10   am
    20    10    24    1
    21    24    25    1
    22    25    26   ar
    23    26    27   ar
    24    27    28   ar
    25    28    29   ar
    26    29    30   ar
    27    10    11    1
    28     7     2   ar
    29    30    25   ar
    30    11     4    1
    31    18    12   ar
    32    21    22    1
    33    21    23    1
@<TRIPOS>MOLECULE
*****
 30 33 0 0 0
SMALL
GASTEIGER

@<TRIPOS>ATOM
      1 C          63.1769   91.1850   12.2288 C.3     1  UNL1        0.0518
      2 C          63.1576   89.6851   12.2175 C.ar    1  UNL1        0.0563
      3 N          63.6179   88.9201   13.4229 N.ar    1  UNL1       -0.2524
      4 C          63.5986   87.4203   13.4116 C.ar    1  UNL1        0.0830
      5 C          63.1191   86.6854   12.1950 C.ar    1  UNL1        0.0686
      6 C          62.6588   87.4504   10.9897 C.ar    1  UNL1        0.0048
      7 C          62.6781   88.9503   11.0010 C.ar    1  UNL1        0.0072
      8 C          63.2131   85.2147   12.4747 C.2     1  UNL1        0.2507
      9 O          62.8357   84.1118   11.5307 O.2     1  UNL1       -0.2698
     10 N          63.7507   85.0406   13.8642 N.am    1  UNL1       -0.2662
     11 C          63.9890   86.4037   14.4432 C.3     1  UNL1        0.1400
     12 C          62.1793   86.7157    9.7730 C.ar    1  UNL1        0.0106
     13 C          63.1602   85.9927    8.8984 C.ar    1  UNL1        0.0017
     14 C          62.6808   85.2579    7.6817 C.ar    1  UNL1        0.0114
     15 C          61.2203   85.2462    7.3398 C.ar    1  UNL1        0.0585
     16 CL         60.7409   84.5114    6.1231 Cl      1  UNL1       -0.0822
     17 C          60.2394   85.9692    8.2144 C.ar    1  UNL1        0.0228
     18 C          60.7188   86.7039    9.4311 C.ar    1  UNL1        0.0585
     19 CL         59.7379   87.4269   10.3057 Cl      1  UNL1       -0.0822
     20 C          62.2178   89.7154    9.7955 C.3     1  UNL1        0.0934
     21 N          60.8850   90.4034    9.8078 N.3     1  UNL1       -0.3174
     22 H          60.1427   89.7058    9.8609 H       1  UNL1        0.1192
     23 H          60.7769   90.9505    8.9538 H       1  UNL1        0.1192
     24 C          64.0053   83.7330   14.5536 C.3     1  UNL1        0.1208
     25 C          63.2388   82.5093   14.1475 C.ar    1  UNL1       -0.0023
     26 C          61.8212   82.3269   14.6026 C.ar    1  UNL1       -0.0026
     27 C          61.0546   81.1031   14.1965 C.ar    1  UNL1       -0.0003
     28 C          61.7057   80.0618   13.3353 C.ar    1  UNL1       -0.0000
     29 C          63.1234   80.2442   12.8802 C.ar    1  UNL1       -0.0003
     30 C          63.8899   81.4679   13.2863 C.ar    1  UNL1       -0.0026
@<TRIPOS>BOND
     1     1     2    1
     2     2     3   ar
     3     3     4   ar
     4     4     5   ar
     5     5     6   ar
     6     6    12    1
     7    12    13   ar
     8    13    14   ar
     9    14    15   ar
    10    15    16    1
    11    15    17   ar
    12    17    18   ar
    13    18    19    1
    14     6     7   ar
    15     7    20    1
    16    20    21    1
    17     5     8    1
    18     8     9    2
    19     8    10   am
    20    10    24    1
    21    24    25    1
    22    25    26   ar
    23    26    27   ar
    24    27    28   ar
    25    28    29   ar
    26    29    30   ar
    27    10    11    1
    28     7     2   ar
    29    30    25   ar
    30    11     4    1
    31    18    12   ar
    32    21    22    1
    33    21    23    1
@<TRIPOS>MOLECULE
*****
 30 33 0 0 0
SMALL
GASTEIGER

@<TRIPOS>ATOM
      1 C          63.8323   83.5042   14.9151 C.3     1  UNL1        0.0518
      2 C          63.6914   84.8362   14.2397 C.ar    1  UNL1        0.0563
      3 N          64.2776   86.0635   14.8721 N.ar    1  UNL1       -0.2524
      4 C          64.1367   87.3954   14.1968 C.ar    1  UNL1        0.0830
      5 C          63.4096   87.5000   12.8890 C.ar    1  UNL1        0.0686
      6 C          62.8233   86.2727   12.2566 C.ar    1  UNL1        0.0048
      7 C          62.9643   84.9408   12.9320 C.ar    1  UNL1        0.0072
      8 C          63.4294   88.9376   12.4613 C.2     1  UNL1        0.2507
      9 O          62.8173   89.4937   11.2098 O.2     1  UNL1       -0.2698
     10 N          64.1688   89.7215   13.5047 N.am    1  UNL1       -0.2662
     11 C          64.6059   88.7684   14.5774 C.3     1  UNL1        0.1400
     12 C          62.0962   86.3772   10.9487 C.ar    1  UNL1        0.0106
     13 C          62.6684   85.7363    9.7192 C.ar    1  UNL1        0.0017
     14 C          61.9413   85.8408    8.4114 C.ar    1  UNL1        0.0114
     15 C          60.6420   86.5862    8.3332 C.ar    1  UNL1        0.0585
     16 CL         59.9149   86.6907    7.0253 Cl      1  UNL1       -0.0822
     17 C          60.0698   87.2271    9.5627 C.ar    1  UNL1        0.0228
     18 C          60.7969   87.1227   10.8705 C.ar    1  UNL1        0.0585
     19 CL         60.2247   87.7636   12.1000 Cl      1  UNL1       -0.0822
     20 C          62.3780   83.7134   12.2995 C.3     1  UNL1        0.0934
     21 N          63.2613   82.7624   11.5475 N.3     1  UNL1       -0.3174
     22 H          63.6279   83.2246   10.7155 H       1  UNL1        0.1192
     23 H          62.7207   81.9428   11.2708 H       1  UNL1        0.1192
     24 C          64.4259   91.1991   13.4800 C.3     1  UNL1        0.1208
     25 C          65.6542   91.7577   14.1350 C.ar    1  UNL1       -0.0023
     26 C          65.5882   92.2626   15.5459 C.ar    1  UNL1       -0.0026
     27 C          66.8165   92.8212   16.2010 C.ar    1  UNL1       -0.0003
     28 C          68.1110   92.8749   15.4451 C.ar    1  UNL1       -0.0000
     29 C          68.1771   92.3700   14.0341 C.ar    1  UNL1       -0.0003
     30 C          66.9488   91.8114   13.3791 C.ar    1  UNL1       -0.0026
@<TRIPOS>BOND
     1     1     2    1
     2     2     3   ar
     3     3     4   ar
     4     4     5   ar
     5     5     6   ar
     6     6    12    1
     7    12    13   ar
     8    13    14   ar
     9    14    15   ar
    10    15    16    1
    11    15    17   ar
    12    17    18   ar
    13    18    19    1
    14     6     7   ar
    15     7    20    1
    16    20    21    1
    17     5     8    1
    18     8     9    2
    19     8    10   am
    20    10    24    1
    21    24    25    1
    22    25    26   ar
    23    26    27   ar
    24    27    28   ar
    25    28    29   ar
    26    29    30   ar
    27    10    11    1
    28     7     2   ar
    29    30    25   ar
    30    11     4    1
    31    18    12   ar
    32    21    22    1
    33    21    23    1
@<TRIPOS>MOLECULE
*****
 30 33 0 0 0
SMALL
GASTEIGER

@<TRIPOS>ATOM
      1 C          63.8250   83.6699   15.0606 C.3     1  UNL1        0.0518
      2 C          63.6219   84.8844   14.2038 C.ar    1  UNL1        0.0563
      3 N          63.9136   86.2485   14.7553 N.ar    1  UNL1       -0.2524
      4 C          63.7105   87.4629   13.8986 C.ar    1  UNL1        0.0830
      5 C          63.2158   87.3132   12.4905 C.ar    1  UNL1        0.0686
      6 C          62.9242   85.9491   11.9390 C.ar    1  UNL1        0.0048
      7 C          63.1272   84.7347   12.7958 C.ar    1  UNL1        0.0072
      8 C          63.1116   88.6828   11.8877 C.2     1  UNL1        0.2507
      9 O          62.6569   89.0005   10.4941 O.2     1  UNL1       -0.2698
     10 N          63.5419   89.6790   12.9234 N.am    1  UNL1       -0.2662
     11 C          63.9120   88.9250   14.1662 C.3     1  UNL1        0.1400
     12 C          62.4294   85.7994   10.5308 C.ar    1  UNL1        0.0106
     13 C          63.2771   85.1023    9.5083 C.ar    1  UNL1        0.0017
     14 C          62.7825   84.9525    8.1002 C.ar    1  UNL1        0.0114
     15 C          61.4402   85.4998    7.7146 C.ar    1  UNL1        0.0585
     16 CL         60.9456   85.3500    6.3064 Cl      1  UNL1       -0.0822
     17 C          60.5925   86.1969    8.7371 C.ar    1  UNL1        0.0228
     18 C          61.0872   86.3467   10.1453 C.ar    1  UNL1        0.0585
     19 CL         60.2395   87.0437   11.1678 Cl      1  UNL1       -0.0822
     20 C          62.8356   83.3705   12.2443 C.3     1  UNL1        0.0934
     21 N          63.9599   82.4941   11.7775 N.3     1  UNL1       -0.3174
     22 H          64.4042   82.9164   10.9622 H       1  UNL1        0.1192
     23 H          63.5937   81.5755   11.5275 H       1  UNL1        0.1192
     24 C          63.5930   91.1677   12.7472 C.3     1  UNL1        0.1208
     25 C          64.8341   91.8173   12.2108 C.ar    1  UNL1       -0.0023
     26 C          64.8646   92.3262   10.8002 C.ar    1  UNL1       -0.0026
     27 C          66.1057   92.9757   10.2638 C.ar    1  UNL1       -0.0003
     28 C          67.3164   93.1164   11.1381 C.ar    1  UNL1       -0.0000
     29 C          67.2859   92.6074   12.5488 C.ar    1  UNL1       -0.0003
     30 C          66.0448   91.9579   13.0852 C.ar    1  UNL1       -0.0026
@<TRIPOS>BOND
     1     1     2    1
     2     2     3   ar
     3     3     4   ar
     4     4     5   ar
     5     5     6   ar
     6     6    12    1
     7    12    13   ar
     8    13    14   ar
     9    14    15   ar
    10    15    16    1
    11    15    17   ar
    12    17    18   ar
    13    18    19    1
    14     6     7   ar
    15     7    20    1
    16    20    21    1
    17     5     8    1
    18     8     9    2
    19     8    10   am
    20    10    24    1
    21    24    25    1
    22    25    26   ar
    23    26    27   ar
    24    27    28   ar
    25    28    29   ar
    26    29    30   ar
    27    10    11    1
    28     7     2   ar
    29    30    25   ar
    30    11     4    1
    31    18    12   ar
    32    21    22    1
    33    21    23    1
@<TRIPOS>MOLECULE
*****
 30 33 0 0 0
SMALL
GASTEIGER

@<TRIPOS>ATOM
      1 C          63.1540   92.3456    2.6723 C.3     1  UNL1        0.0518
      2 C          62.5032   92.7107    1.3710 C.ar    1  UNL1        0.0563
      3 N          61.0788   92.3202    1.1093 N.ar    1  UNL1       -0.2524
      4 C          60.4281   92.6853   -0.1920 C.ar    1  UNL1        0.0830
      5 C          61.2017   93.4409   -1.2315 C.ar    1  UNL1        0.0686
      6 C          62.6261   93.8314   -0.9698 C.ar    1  UNL1        0.0048
      7 C          63.2769   93.4662    0.3315 C.ar    1  UNL1        0.0072
      8 C          60.3014   93.6605   -2.4109 C.2     1  UNL1        0.2507
      9 O          60.6669   94.3745   -3.6784 O.2     1  UNL1       -0.2698
     10 N          58.9712   93.0406   -2.1004 N.am    1  UNL1       -0.2662
     11 C          59.0495   92.4379   -0.7290 C.3     1  UNL1        0.1400
     12 C          63.3999   94.5869   -2.0092 C.ar    1  UNL1        0.0106
     13 C          63.5501   96.0752   -1.8978 C.ar    1  UNL1        0.0017
     14 C          64.3238   96.8309   -2.9372 C.ar    1  UNL1        0.0114
     15 C          64.9473   96.0982   -4.0880 C.ar    1  UNL1        0.0585
     16 CL         65.7210   96.8538   -5.1274 Cl      1  UNL1       -0.0822
     17 C          64.7972   94.6099   -4.1994 C.ar    1  UNL1        0.0228
     18 C          64.0234   93.8542   -3.1600 C.ar    1  UNL1        0.0585
     19 CL         63.8733   92.3659   -3.2714 Cl      1  UNL1       -0.0822
     20 C          64.7014   93.8567    0.5933 C.3     1  UNL1        0.0934
     21 N          65.7917   92.8322    0.4859 N.3     1  UNL1       -0.3174
     22 H          65.6707   92.1292    1.2150 H       1  UNL1        0.1192
     23 H          66.6978   93.2868    0.5990 H       1  UNL1        0.1192
     24 C          57.7731   93.0259   -3.0027 C.3     1  UNL1        0.1208
     25 C          56.7064   94.0694   -2.8500 C.ar    1  UNL1       -0.0023
     26 C          56.8419   95.3887   -3.5507 C.ar    1  UNL1       -0.0026
     27 C          55.7752   96.4321   -3.3981 C.ar    1  UNL1       -0.0003
     28 C          54.5728   96.1563   -2.5446 C.ar    1  UNL1       -0.0000
     29 C          54.4373   94.8369   -1.8439 C.ar    1  UNL1       -0.0003
     30 C          55.5040   93.7934   -1.9966 C.ar    1  UNL1       -0.0026
@<TRIPOS>BOND
     1     1     2    1
     2     2     3   ar
     3     3     4   ar
     4     4     5   ar
     5     5     6   ar
     6     6    12    1
     7    12    13   ar
     8    13    14   ar
     9    14    15   ar
    10    15    16    1
    11    15    17   ar
    12    17    18   ar
    13    18    19    1
    14     6     7   ar
    15     7    20    1
    16    20    21    1
    17     5     8    1
    18     8     9    2
    19     8    10   am
    20    10    24    1
    21    24    25    1
    22    25    26   ar
    23    26    27   ar
    24    27    28   ar
    25    28    29   ar
    26    29    30   ar
    27    10    11    1
    28     7     2   ar
    29    30    25   ar
    30    11     4    1
    31    18    12   ar
    32    21    22    1
    33    21    23    1
@<TRIPOS>MOLECULE
*****
 30 33 0 0 0
SMALL
GASTEIGER

@<TRIPOS>ATOM
      1 C          58.9007   88.4600    7.1943 C.3     1  UNL1        0.0518
      2 C          59.9372   88.4749    8.2786 C.ar    1  UNL1        0.0563
      3 N          60.4088   89.7803    8.8474 N.ar    1  UNL1       -0.2524
      4 C          61.4452   89.7952    9.9316 C.ar    1  UNL1        0.0830
      5 C          62.0100   88.5047   10.4471 C.ar    1  UNL1        0.0686
      6 C          61.5384   87.1993    9.8783 C.ar    1  UNL1        0.0048
      7 C          60.5019   87.1845    8.7940 C.ar    1  UNL1        0.0072
      8 C          63.0126   88.8309   11.5141 C.2     1  UNL1        0.2507
      9 O          63.8188   87.8391   12.2992 O.2     1  UNL1       -0.2698
     10 N          63.0674   90.3230   11.6580 N.am    1  UNL1       -0.2662
     11 C          62.0987   90.9189   10.6800 C.3     1  UNL1        0.1400
     12 C          62.1031   85.9088   10.3938 C.ar    1  UNL1        0.0106
     13 C          61.7515   85.4339   11.7725 C.ar    1  UNL1        0.0017
     14 C          62.3162   84.1434   12.2880 C.ar    1  UNL1        0.0114
     15 C          63.2325   83.3279   11.4247 C.ar    1  UNL1        0.0585
     16 CL         63.7972   82.0374   11.9402 Cl      1  UNL1       -0.0822
     17 C          63.5841   83.8028   10.0460 C.ar    1  UNL1        0.0228
     18 C          63.0195   85.0933    9.5305 C.ar    1  UNL1        0.0585
     19 CL         63.3711   85.5682    8.1518 Cl      1  UNL1       -0.0822
     20 C          60.0303   85.8790    8.2252 C.3     1  UNL1        0.0934
     21 N          60.4614   85.4603    6.8509 N.3     1  UNL1       -0.3174
     22 H          60.0665   86.0996    6.1611 H       1  UNL1        0.1192
     23 H          60.1313   84.5133    6.6648 H       1  UNL1        0.1192
     24 C          63.9381   91.0853   12.6124 C.3     1  UNL1        0.1208
     25 C          63.8153   90.8525   14.0891 C.ar    1  UNL1       -0.0023
     26 C          63.0546   89.6652   14.6006 C.ar    1  UNL1       -0.0026
     27 C          62.9318   89.4324   16.0773 C.ar    1  UNL1       -0.0003
     28 C          63.5698   90.3870   17.0426 C.ar    1  UNL1       -0.0000
     29 C          64.3305   91.5743   16.5311 C.ar    1  UNL1       -0.0003
     30 C          64.4533   91.8071   15.0544 C.ar    1  UNL1       -0.0026
@<TRIPOS>BOND
     1     1     2    1
     2     2     3   ar
     3     3     4   ar
     4     4     5   ar
     5     5     6   ar
     6     6    12    1
     7    12    13   ar
     8    13    14   ar
     9    14    15   ar
    10    15    16    1
    11    15    17   ar
    12    17    18   ar
    13    18    19    1
    14     6     7   ar
    15     7    20    1
    16    20    21    1
    17     5     8    1
    18     8     9    2
    19     8    10   am
    20    10    24    1
    21    24    25    1
    22    25    26   ar
    23    26    27   ar
    24    27    28   ar
    25    28    29   ar
    26    29    30   ar
    27    10    11    1
    28     7     2   ar
    29    30    25   ar
    30    11     4    1
    31    18    12   ar
    32    21    22    1
    33    21    23    1
@<TRIPOS>MOLECULE
*****
 30 33 0 0 0
SMALL
GASTEIGER

@<TRIPOS>ATOM
      1 C          63.1251   79.9126   11.5405 C.3     1  UNL1        0.0518
      2 C          63.0311   81.4094   11.5723 C.ar    1  UNL1        0.0563
      3 N          62.9438   82.1827   10.2899 N.ar    1  UNL1       -0.2524
      4 C          62.8499   83.6794   10.3217 C.ar    1  UNL1        0.0830
      5 C          62.8432   84.4028   11.6357 C.ar    1  UNL1        0.0686
      6 C          62.9305   83.6295   12.9180 C.ar    1  UNL1        0.0048
      7 C          63.0245   82.1327   12.8862 C.ar    1  UNL1        0.0072
      8 C          62.7417   85.8728   11.3551 C.2     1  UNL1        0.2507
      9 O          62.7030   86.9658   12.3817 O.2     1  UNL1       -0.2698
     10 N          62.6855   86.0579    9.8676 N.am    1  UNL1       -0.2662
     11 C          62.7524   84.7024    9.2289 C.3     1  UNL1        0.1400
     12 C          62.9239   84.3528   14.2321 C.ar    1  UNL1        0.0106
     13 C          61.6327   84.5626   14.9661 C.ar    1  UNL1        0.0017
     14 C          61.6260   85.2859   16.2802 C.ar    1  UNL1        0.0114
     15 C          62.9104   85.7994   16.8602 C.ar    1  UNL1        0.0585
     16 CL         62.9037   86.5227   18.1743 Cl      1  UNL1       -0.0822
     17 C          64.2016   85.5896   16.1261 C.ar    1  UNL1        0.0228
     18 C          64.2084   84.8663   14.8121 C.ar    1  UNL1        0.0585
     19 CL         65.4996   84.6565   14.0780 Cl      1  UNL1       -0.0822
     20 C          63.1118   81.3593   14.1686 C.3     1  UNL1        0.0934
     21 N          61.8594   80.8941   14.8506 N.3     1  UNL1       -0.3174
     22 H          61.3283   81.7024   15.1746 H       1  UNL1        0.1192
     23 H          62.1045   80.3066   15.6476 H       1  UNL1        0.1192
     24 C          62.5809   87.3685    9.1456 C.3     1  UNL1        0.1208
     25 C          61.9079   88.5361    9.8043 C.ar    1  UNL1       -0.0023
     26 C          60.4208   88.5321   10.0000 C.ar    1  UNL1       -0.0026
     27 C          59.7478   89.6996   10.6587 C.ar    1  UNL1       -0.0003
     28 C          60.5619   90.8713   11.1217 C.ar    1  UNL1       -0.0000
     29 C          62.0492   90.8753   10.9260 C.ar    1  UNL1       -0.0003
     30 C          62.7222   89.7077   10.2673 C.ar    1  UNL1       -0.0026
@<TRIPOS>BOND
     1     1     2    1
     2     2     3   ar
     3     3     4   ar
     4     4     5   ar
     5     5     6   ar
     6     6    12    1
     7    12    13   ar
     8    13    14   ar
     9    14    15   ar
    10    15    16    1
    11    15    17   ar
    12    17    18   ar
    13    18    19    1
    14     6     7   ar
    15     7    20    1
    16    20    21    1
    17     5     8    1
    18     8     9    2
    19     8    10   am
    20    10    24    1
    21    24    25    1
    22    25    26   ar
    23    26    27   ar
    24    27    28   ar
    25    28    29   ar
    26    29    30   ar
    27    10    11    1
    28     7     2   ar
    29    30    25   ar
    30    11     4    1
    31    18    12   ar
    32    21    22    1
    33    21    23    1
@<TRIPOS>MOLECULE
*****
 30 33 0 0 0
SMALL
GASTEIGER

@<TRIPOS>ATOM
      1 C          63.1270   91.7256    3.0307 C.3     1  UNL1        0.0518
      2 C          62.4307   92.3888    1.8794 C.ar    1  UNL1        0.0563
      3 N          60.9332   92.3680    1.7959 N.ar    1  UNL1       -0.2524
      4 C          60.2369   93.0312    0.6447 C.ar    1  UNL1        0.0830
      5 C          61.0382   93.7152   -0.4231 C.ar    1  UNL1        0.0686
      6 C          62.5357   93.7360   -0.3397 C.ar    1  UNL1        0.0048
      7 C          63.2319   93.0727    0.8116 C.ar    1  UNL1        0.0072
      8 C          60.0812   94.2793   -1.4310 C.2     1  UNL1        0.2507
      9 O          60.4518   95.0445   -2.6668 O.2     1  UNL1       -0.2698
     10 N          58.6885   93.9440   -0.9862 N.am    1  UNL1       -0.2662
     11 C          58.7847   93.1726    0.2967 C.3     1  UNL1        0.1400
     12 C          63.3370   94.4200   -1.4074 C.ar    1  UNL1        0.0106
     13 C          63.7020   93.6808   -2.6606 C.ar    1  UNL1        0.0017
     14 C          64.5033   94.3646   -3.7284 C.ar    1  UNL1        0.0114
     15 C          64.9396   95.7877   -3.5430 C.ar    1  UNL1        0.0585
     16 CL         65.7409   96.4716   -4.6108 Cl      1  UNL1       -0.0822
     17 C          64.5746   96.5269   -2.2899 C.ar    1  UNL1        0.0228
     18 C          63.7733   95.8431   -1.2220 C.ar    1  UNL1        0.0585
     19 CL         63.4083   96.5823    0.0311 Cl      1  UNL1       -0.0822
     20 C          64.7295   93.0935    0.8951 C.3     1  UNL1        0.0934
     21 N          65.4136   94.0013    1.8739 N.3     1  UNL1       -0.3174
     22 H          65.2437   94.9726    1.6128 H       1  UNL1        0.1192
     23 H          66.4168   93.8172    1.8645 H       1  UNL1        0.1192
     24 C          57.4219   94.3149   -1.6990 C.3     1  UNL1        0.1208
     25 C          56.9060   93.4500   -2.8107 C.ar    1  UNL1       -0.0023
     26 C          56.5533   92.0167   -2.5439 C.ar    1  UNL1       -0.0026
     27 C          56.0375   91.1518   -3.6556 C.ar    1  UNL1       -0.0003
     28 C          55.8743   91.7202   -5.0341 C.ar    1  UNL1       -0.0000
     29 C          56.2270   93.1536   -5.3008 C.ar    1  UNL1       -0.0003
     30 C          56.7429   94.0185   -4.1892 C.ar    1  UNL1       -0.0026
@<TRIPOS>BOND
     1     1     2    1
     2     2     3   ar
     3     3     4   ar
     4     4     5   ar
     5     5     6   ar
     6     6    12    1
     7    12    13   ar
     8    13    14   ar
     9    14    15   ar
    10    15    16    1
    11    15    17   ar
    12    17    18   ar
    13    18    19    1
    14     6     7   ar
    15     7    20    1
    16    20    21    1
    17     5     8    1
    18     8     9    2
    19     8    10   am
    20    10    24    1
    21    24    25    1
    22    25    26   ar
    23    26    27   ar
    24    27    28   ar
    25    28    29   ar
    26    29    30   ar
    27    10    11    1
    28     7     2   ar
    29    30    25   ar
    30    11     4    1
    31    18    12   ar
    32    21    22    1
    33    21    23    1
