@<TRIPOS>MOLECULE
*****
 32 36 0 0 0
SMALL
GASTEIGER

@<TRIPOS>ATOM
      1 C          63.0651   94.8907   -0.8296 C.3     1  UNL1        0.1272
      2 C          64.2673   95.6174   -1.3555 C.2     1  UNL1        0.0260
      3 C          64.8731   96.2319   -2.5824 C.2     1  UNL1        0.0757
      4 N          66.2124   96.7931   -2.2066 N.2     1  UNL1       -0.1569
      5 N          66.4343   96.5254   -0.7474 N.2     1  UNL1       -0.1631
      6 C          65.2321   95.7988   -0.2215 C.3     1  UNL1        0.2225
      7 C          64.6263   95.1842    1.0054 C.2     1  UNL1        0.2581
      8 O          65.2502   95.1388    2.3688 O.2     1  UNL1       -0.2720
      9 N          63.2869   94.6229    0.6296 N.am    1  UNL1       -0.2508
     10 C          61.9819   93.5275   -2.7579 C.ar    1  UNL1        0.1366
     11 C          60.7704   93.1371   -3.5517 C.ar    1  UNL1        0.0366
     12 C          59.4308   93.7194   -3.2109 C.ar    1  UNL1        0.0031
     13 C          59.3025   94.6922   -2.0762 C.ar    1  UNL1       -0.0001
     14 C          60.5140   95.0826   -1.2825 C.ar    1  UNL1        0.0007
     15 C          61.8537   94.5003   -1.6233 C.ar    1  UNL1        0.0340
     16 C          63.6429   92.5835   -4.5187 C.3     1  UNL1        0.2525
     17 O          63.3216   92.9452   -3.0988 O.3     1  UNL1       -0.4717
     18 C          62.3364   93.9179    1.5511 C.ar    1  UNL1        0.0544
     19 C          60.9697   94.4852    1.7963 C.ar    1  UNL1        0.0150
     20 C          60.0191   93.7801    2.7179 C.ar    1  UNL1        0.0029
     21 C          60.4352   92.5076    3.3942 C.ar    1  UNL1        0.0210
     22 C          61.8020   91.9401    3.1490 C.ar    1  UNL1        0.0029
     23 C          62.7525   92.6452    2.2275 C.ar    1  UNL1        0.0150
     24 C          59.4847   91.8024    4.3157 C.ar    1  UNL1        0.1231
     25 C          59.8435   90.7273    5.2983 C.ar    1  UNL1        0.0658
     26 C          58.5890   90.3091    6.0063 C.ar    1  UNL1        0.2138
     27 O          57.4549   91.1257    5.4613 O.2     1  UNL1       -0.3502
     28 N          58.0085   92.0486    4.4165 N.ar    1  UNL1       -0.0768
     29 C          64.2492   96.2773   -3.9458 C.3     1  UNL1        0.0367
     30 C          65.5008   95.7003   -4.5378 C.3     1  UNL1        0.0060
     31 C          62.9976   96.8543   -3.3538 C.3     1  UNL1        0.0060
     32 C          63.6253   96.3227   -5.3091 C.3     1  UNL1        0.0060
@<TRIPOS>BOND
     1    16    17    1
     2    17    10    1
     3    10    11   ar
     4    11    12   ar
     5    12    13   ar
     6    13    14   ar
     7    14    15   ar
     8    15     1    1
     9     1     2    1
    10     2     3    2
    11     3    29    1
    12    29    30    1
    13    29    31    1
    14    29    32    1
    15     3     4    1
    16     4     5    2
    17     5     6    1
    18     6     7    1
    19     7     8    2
    20     7     9   am
    21     9    18    1
    22    18    19   ar
    23    19    20   ar
    24    20    21   ar
    25    21    24    1
    26    24    25   ar
    27    25    26   ar
    28    26    27   ar
    29    27    28   ar
    30    21    22   ar
    31    22    23   ar
    32    15    10   ar
    33     9     1    1
    34    23    18   ar
    35     6     2    1
    36    28    24   ar
@<TRIPOS>MOLECULE
*****
 32 36 0 0 0
SMALL
GASTEIGER

@<TRIPOS>ATOM
      1 C          60.3209   94.5994   -2.3345 C.3     1  UNL1        0.1272
      2 C          61.5817   94.2046   -1.6243 C.2     1  UNL1        0.0260
      3 C          63.0597   94.0115   -1.7924 C.2     1  UNL1        0.0757
      4 N          63.6218   93.5660   -0.4750 N.2     1  UNL1       -0.1569
      5 N          62.4912   93.4838    0.5074 N.2     1  UNL1       -0.1631
      6 C          61.2304   93.8785   -0.2029 C.3     1  UNL1        0.2225
      7 C          59.7524   94.0717   -0.0347 C.2     1  UNL1        0.2581
      8 O          58.9733   93.8570    1.2290 O.2     1  UNL1       -0.2720
      9 N          59.1903   94.5172   -1.3522 N.am    1  UNL1       -0.2508
     10 C          59.3773   94.1920   -4.7207 C.ar    1  UNL1        0.1366
     11 C          59.2665   94.5978   -6.1606 C.ar    1  UNL1        0.0366
     12 C          59.9884   95.8165   -6.6541 C.ar    1  UNL1        0.0031
     13 C          60.8212   96.6295   -5.7078 C.ar    1  UNL1       -0.0001
     14 C          60.9320   96.2237   -4.2679 C.ar    1  UNL1        0.0007
     15 C          60.2101   95.0050   -3.7744 C.ar    1  UNL1        0.0340
     16 C          57.4235   92.4931   -4.9356 C.3     1  UNL1        0.2525
     17 O          58.6554   92.9733   -4.2272 O.3     1  UNL1       -0.4717
     18 C          57.7505   94.8263   -1.6372 C.ar    1  UNL1        0.0544
     19 C          56.7186   93.7412   -1.5484 C.ar    1  UNL1        0.0150
     20 C          55.2787   94.0502   -1.8334 C.ar    1  UNL1        0.0029
     21 C          54.8707   95.4444   -2.2072 C.ar    1  UNL1        0.0210
     22 C          55.9025   96.5295   -2.2960 C.ar    1  UNL1        0.0029
     23 C          57.3423   96.2205   -2.0110 C.ar    1  UNL1        0.0150
     24 C          53.4308   95.7535   -2.4922 C.ar    1  UNL1        0.1231
     25 C          52.9235   96.8559   -3.3738 C.ar    1  UNL1        0.0658
     26 C          51.4246   96.7981   -3.3721 C.ar    1  UNL1        0.2138
     27 O          51.0055   95.6600   -2.4894 O.2     1  UNL1       -0.3502
     28 N          52.2455   95.0144   -1.9456 N.ar    1  UNL1       -0.0768
     29 C          63.8388   94.2262   -3.0561 C.3     1  UNL1        0.0367
     30 C          63.4227   92.8698   -3.5431 C.3     1  UNL1        0.0060
     31 C          64.2549   95.5825   -2.5692 C.3     1  UNL1        0.0060
     32 C          64.6179   94.4408   -4.3198 C.3     1  UNL1        0.0060
@<TRIPOS>BOND
     1    16    17    1
     2    17    10    1
     3    10    11   ar
     4    11    12   ar
     5    12    13   ar
     6    13    14   ar
     7    14    15   ar
     8    15     1    1
     9     1     2    1
    10     2     3    2
    11     3    29    1
    12    29    30    1
    13    29    31    1
    14    29    32    1
    15     3     4    1
    16     4     5    2
    17     5     6    1
    18     6     7    1
    19     7     8    2
    20     7     9   am
    21     9    18    1
    22    18    19   ar
    23    19    20   ar
    24    20    21   ar
    25    21    24    1
    26    24    25   ar
    27    25    26   ar
    28    26    27   ar
    29    27    28   ar
    30    21    22   ar
    31    22    23   ar
    32    15    10   ar
    33     9     1    1
    34    23    18   ar
    35     6     2    1
    36    28    24   ar
@<TRIPOS>MOLECULE
*****
 32 36 0 0 0
SMALL
GASTEIGER

@<TRIPOS>ATOM
      1 C          62.8530   86.8815   11.8717 C.3     1  UNL1        0.1272
      2 C          63.2401   88.1474   12.5771 C.2     1  UNL1        0.0260
      3 C          63.1167   89.6419   12.5432 C.2     1  UNL1        0.0757
      4 N          63.8664   90.1956   13.7185 N.2     1  UNL1       -0.1569
      5 N          64.4531   89.0433   14.4787 N.2     1  UNL1       -0.1631
      6 C          64.0660   87.7774   13.7733 C.3     1  UNL1        0.2225
      7 C          64.1894   86.2829   13.8072 C.2     1  UNL1        0.2581
      8 O          64.9321   85.4826   14.8358 O.2     1  UNL1       -0.2720
      9 N          63.4397   85.7291   12.6319 N.am    1  UNL1       -0.2508
     10 C          60.6035   87.2650   10.6294 C.ar    1  UNL1        0.1366
     11 C          59.7752   87.1683    9.3826 C.ar    1  UNL1        0.0366
     12 C          60.3679   86.5914    8.1312 C.ar    1  UNL1        0.0031
     13 C          61.7890   86.1112    8.1267 C.ar    1  UNL1       -0.0001
     14 C          62.6173   86.2079    9.3735 C.ar    1  UNL1        0.0007
     15 C          62.0246   86.7848   10.6249 C.ar    1  UNL1        0.0340
     16 C          58.8197   88.7498   11.7971 C.3     1  UNL1        0.2525
     17 O          60.0108   87.8418   11.8808 O.3     1  UNL1       -0.4717
     18 C          63.3010   84.2779   12.2789 C.ar    1  UNL1        0.0544
     19 C          62.4649   83.3742   13.1356 C.ar    1  UNL1        0.0150
     20 C          62.3262   81.9229   12.7826 C.ar    1  UNL1        0.0029
     21 C          63.0237   81.3754   11.5728 C.ar    1  UNL1        0.0210
     22 C          63.8599   82.2792   10.7159 C.ar    1  UNL1        0.0029
     23 C          63.9985   83.7304   11.0690 C.ar    1  UNL1        0.0150
     24 C          62.8851   79.9241   11.2197 C.ar    1  UNL1        0.1231
     25 C          62.9504   79.3426    9.8386 C.ar    1  UNL1        0.0658
     26 C          62.7625   77.8587    9.9511 C.ar    1  UNL1        0.2138
     27 O          62.5810   77.5231   11.4018 O.2     1  UNL1       -0.3502
     28 N          62.6567   78.7996   12.1858 N.ar    1  UNL1       -0.0768
     29 C          62.3740   90.4422   11.5146 C.3     1  UNL1        0.0367
     30 C          63.5679   90.3853   10.6083 C.3     1  UNL1        0.0060
     31 C          61.1801   90.4990   12.4209 C.3     1  UNL1        0.0060
     32 C          61.6313   91.2425   10.4860 C.3     1  UNL1        0.0060
@<TRIPOS>BOND
     1    16    17    1
     2    17    10    1
     3    10    11   ar
     4    11    12   ar
     5    12    13   ar
     6    13    14   ar
     7    14    15   ar
     8    15     1    1
     9     1     2    1
    10     2     3    2
    11     3    29    1
    12    29    30    1
    13    29    31    1
    14    29    32    1
    15     3     4    1
    16     4     5    2
    17     5     6    1
    18     6     7    1
    19     7     8    2
    20     7     9   am
    21     9    18    1
    22    18    19   ar
    23    19    20   ar
    24    20    21   ar
    25    21    24    1
    26    24    25   ar
    27    25    26   ar
    28    26    27   ar
    29    27    28   ar
    30    21    22   ar
    31    22    23   ar
    32    15    10   ar
    33     9     1    1
    34    23    18   ar
    35     6     2    1
    36    28    24   ar
@<TRIPOS>MOLECULE
*****
 32 36 0 0 0
SMALL
GASTEIGER

@<TRIPOS>ATOM
      1 C          72.3100   73.4674   13.4118 C.3     1  UNL1        0.1272
      2 C          72.2655   72.7303   14.7174 C.2     1  UNL1        0.0260
      3 C          72.2458   71.3660   15.3407 C.2     1  UNL1        0.0757
      4 N          72.1934   71.5376   16.8299 N.2     1  UNL1       -0.1569
      5 N          72.1807   73.0078   17.1270 N.2     1  UNL1       -0.1631
      6 C          72.2253   73.7449   15.8214 C.3     1  UNL1        0.2225
      7 C          72.2450   75.1092   15.1982 C.2     1  UNL1        0.2581
      8 O          72.2172   76.4155   15.9348 O.2     1  UNL1       -0.2720
      9 N          72.2974   74.9377   13.7088 N.am    1  UNL1       -0.2508
     10 C          71.2033   72.0227   11.5575 C.ar    1  UNL1        0.1366
     11 C          71.2521   71.3992   10.1941 C.ar    1  UNL1        0.0366
     12 C          72.4561   71.5967    9.3216 C.ar    1  UNL1        0.0031
     13 C          73.6114   72.4178    9.8125 C.ar    1  UNL1       -0.0001
     14 C          73.5627   73.0414   11.1759 C.ar    1  UNL1        0.0007
     15 C          72.3587   72.8438   12.0484 C.ar    1  UNL1        0.0340
     16 C          69.0599   70.6862   12.1651 C.3     1  UNL1        0.2525
     17 O          69.9993   71.8252   12.4300 O.3     1  UNL1       -0.4717
     18 C          72.3312   76.0424   12.6948 C.ar    1  UNL1        0.0544
     19 C          71.0970   76.8513   12.4255 C.ar    1  UNL1        0.0150
     20 C          71.1307   77.9561   11.4114 C.ar    1  UNL1        0.0029
     21 C          72.3987   78.2519   10.6666 C.ar    1  UNL1        0.0210
     22 C          73.6329   77.4430   10.9359 C.ar    1  UNL1        0.0029
     23 C          73.5992   76.3383   11.9500 C.ar    1  UNL1        0.0150
     24 C          72.4325   79.3567    9.6525 C.ar    1  UNL1        0.1231
     25 C          72.8913   79.2337    8.2297 C.ar    1  UNL1        0.0658
     26 C          72.7558   80.5794    7.5811 C.ar    1  UNL1        0.2138
     27 O          72.2133   81.5341    8.6030 O.2     1  UNL1       -0.3502
     28 N          72.0134   80.7784    9.8833 N.ar    1  UNL1       -0.0768
     29 C          72.2736   70.0597   14.6040 C.3     1  UNL1        0.0367
     30 C          73.6330   70.3928   14.0645 C.3     1  UNL1        0.0060
     31 C          70.9141   69.7265   15.1435 C.3     1  UNL1        0.0060
     32 C          72.3013   68.7533   13.8674 C.3     1  UNL1        0.0060
@<TRIPOS>BOND
     1    16    17    1
     2    17    10    1
     3    10    11   ar
     4    11    12   ar
     5    12    13   ar
     6    13    14   ar
     7    14    15   ar
     8    15     1    1
     9     1     2    1
    10     2     3    2
    11     3    29    1
    12    29    30    1
    13    29    31    1
    14    29    32    1
    15     3     4    1
    16     4     5    2
    17     5     6    1
    18     6     7    1
    19     7     8    2
    20     7     9   am
    21     9    18    1
    22    18    19   ar
    23    19    20   ar
    24    20    21   ar
    25    21    24    1
    26    24    25   ar
    27    25    26   ar
    28    26    27   ar
    29    27    28   ar
    30    21    22   ar
    31    22    23   ar
    32    15    10   ar
    33     9     1    1
    34    23    18   ar
    35     6     2    1
    36    28    24   ar
@<TRIPOS>MOLECULE
*****
 32 36 0 0 0
SMALL
GASTEIGER

@<TRIPOS>ATOM
      1 C          61.2342   94.0465    0.4397 C.3     1  UNL1        0.1272
      2 C          62.0931   93.4307    1.5042 C.2     1  UNL1        0.0260
      3 C          63.5079   93.2517    1.9691 C.2     1  UNL1        0.0757
      4 N          63.4827   92.4343    3.2266 N.2     1  UNL1       -0.1569
      5 N          62.0523   92.1082    3.5389 N.2     1  UNL1       -0.1631
      6 C          61.1934   92.7240    2.4744 C.3     1  UNL1        0.2225
      7 C          59.7786   92.9030    2.0095 C.2     1  UNL1        0.2581
      8 O          58.5536   92.3600    2.6836 O.2     1  UNL1       -0.2720
      9 N          59.8038   93.7204    0.7519 N.am    1  UNL1       -0.2508
     10 C          61.3442   94.4423   -2.1257 C.ar    1  UNL1        0.1366
     11 C          61.8304   95.2437   -3.2969 C.ar    1  UNL1        0.0366
     12 C          62.6929   96.4505   -3.0737 C.ar    1  UNL1        0.0031
     13 C          63.0692   96.8559   -1.6794 C.ar    1  UNL1       -0.0001
     14 C          62.5829   96.0546   -0.5082 C.ar    1  UNL1        0.0007
     15 C          61.7204   94.8478   -0.7314 C.ar    1  UNL1        0.0340
     16 C          59.4469   93.2437   -3.4347 C.3     1  UNL1        0.2525
     17 O          60.4817   93.2356   -2.3489 O.3     1  UNL1       -0.4717
     18 C          58.6085   94.1382   -0.0521 C.ar    1  UNL1        0.0544
     19 C          58.4119   95.5819   -0.4087 C.ar    1  UNL1        0.0150
     20 C          57.2165   95.9998   -1.2128 C.ar    1  UNL1        0.0029
     21 C          56.2178   94.9740   -1.6602 C.ar    1  UNL1        0.0210
     22 C          56.4144   93.5303   -1.3036 C.ar    1  UNL1        0.0029
     23 C          57.6096   93.1124   -0.4996 C.ar    1  UNL1        0.0150
     24 C          55.0224   95.3919   -2.4643 C.ar    1  UNL1        0.1231
     25 C          53.7031   95.8446   -1.9125 C.ar    1  UNL1        0.0658
     26 C          52.8018   96.1628   -3.0686 C.ar    1  UNL1        0.2138
     27 O          53.5641   95.9068   -4.3348 O.2     1  UNL1       -0.3502
     28 N          54.9365   95.4303   -3.9614 N.ar    1  UNL1       -0.0768
     29 C          64.7329   93.7947    1.2949 C.3     1  UNL1        0.0367
     30 C          64.8287   94.8708    2.3356 C.3     1  UNL1        0.0060
     31 C          64.6372   92.7187    0.2543 C.3     1  UNL1        0.0060
     32 C          65.9579   94.3378    0.6208 C.3     1  UNL1        0.0060
@<TRIPOS>BOND
     1    16    17    1
     2    17    10    1
     3    10    11   ar
     4    11    12   ar
     5    12    13   ar
     6    13    14   ar
     7    14    15   ar
     8    15     1    1
     9     1     2    1
    10     2     3    2
    11     3    29    1
    12    29    30    1
    13    29    31    1
    14    29    32    1
    15     3     4    1
    16     4     5    2
    17     5     6    1
    18     6     7    1
    19     7     8    2
    20     7     9   am
    21     9    18    1
    22    18    19   ar
    23    19    20   ar
    24    20    21   ar
    25    21    24    1
    26    24    25   ar
    27    25    26   ar
    28    26    27   ar
    29    27    28   ar
    30    21    22   ar
    31    22    23   ar
    32    15    10   ar
    33     9     1    1
    34    23    18   ar
    35     6     2    1
    36    28    24   ar
@<TRIPOS>MOLECULE
*****
 32 36 0 0 0
SMALL
GASTEIGER

@<TRIPOS>ATOM
      1 C          62.7879   94.6573   -0.6546 C.3     1  UNL1        0.1272
      2 C          63.9793   95.3588   -1.2365 C.2     1  UNL1        0.0260
      3 C          64.5272   95.9898   -2.4822 C.2     1  UNL1        0.0757
      4 N          65.9069   96.4937   -2.1781 N.2     1  UNL1       -0.1569
      5 N          66.2117   96.1741   -0.7446 N.2     1  UNL1       -0.1631
      6 C          65.0204   95.4726   -0.1627 C.3     1  UNL1        0.2225
      7 C          64.4725   94.8416    1.0830 C.2     1  UNL1        0.2581
      8 O          65.1801   94.7334    2.4011 O.2     1  UNL1       -0.2720
      9 N          63.0927   94.3377    0.7790 N.am    1  UNL1       -0.2508
     10 C          60.3455   95.2679   -1.2962 C.ar    1  UNL1        0.1366
     11 C          59.0727   94.9431   -2.0206 C.ar    1  UNL1        0.0366
     12 C          58.9697   93.6829   -2.8276 C.ar    1  UNL1        0.0031
     13 C          60.1395   92.7475   -2.9103 C.ar    1  UNL1       -0.0001
     14 C          61.4122   93.0723   -2.1859 C.ar    1  UNL1        0.0007
     15 C          61.5152   94.3325   -1.3789 C.ar    1  UNL1        0.0340
     16 C          59.4350   96.8208    0.5772 C.3     1  UNL1        0.2525
     17 O          60.4485   96.5281   -0.4892 O.3     1  UNL1       -0.4717
     18 C          62.1784   93.6372    1.7397 C.ar    1  UNL1        0.0544
     19 C          60.7453   94.0640    1.8580 C.ar    1  UNL1        0.0150
     20 C          59.8308   93.3635    2.8188 C.ar    1  UNL1        0.0029
     21 C          60.3496   92.2361    3.6614 C.ar    1  UNL1        0.0210
     22 C          61.7828   91.8092    3.5431 C.ar    1  UNL1        0.0029
     23 C          62.6971   92.5097    2.5824 C.ar    1  UNL1        0.0150
     24 C          59.4352   91.5356    4.6222 C.ar    1  UNL1        0.1231
     25 C          59.8297   90.4585    5.5888 C.ar    1  UNL1        0.0658
     26 C          58.6041   90.0464    6.3491 C.ar    1  UNL1        0.2138
     27 O          57.4521   90.8688    5.8524 O.2     1  UNL1       -0.3502
     28 N          57.9658   91.7891    4.7851 N.ar    1  UNL1       -0.0768
     29 C          63.8196   96.0980   -3.8003 C.3     1  UNL1        0.0367
     30 C          64.9409   95.3543   -4.4633 C.3     1  UNL1        0.0060
     31 C          62.6982   96.8416   -3.1374 C.3     1  UNL1        0.0060
     32 C          63.1120   96.2061   -5.1185 C.3     1  UNL1        0.0060
@<TRIPOS>BOND
     1    16    17    1
     2    17    10    1
     3    10    11   ar
     4    11    12   ar
     5    12    13   ar
     6    13    14   ar
     7    14    15   ar
     8    15     1    1
     9     1     2    1
    10     2     3    2
    11     3    29    1
    12    29    30    1
    13    29    31    1
    14    29    32    1
    15     3     4    1
    16     4     5    2
    17     5     6    1
    18     6     7    1
    19     7     8    2
    20     7     9   am
    21     9    18    1
    22    18    19   ar
    23    19    20   ar
    24    20    21   ar
    25    21    24    1
    26    24    25   ar
    27    25    26   ar
    28    26    27   ar
    29    27    28   ar
    30    21    22   ar
    31    22    23   ar
    32    15    10   ar
    33     9     1    1
    34    23    18   ar
    35     6     2    1
    36    28    24   ar
@<TRIPOS>MOLECULE
*****
 32 36 0 0 0
SMALL
GASTEIGER

@<TRIPOS>ATOM
      1 C          61.5578   94.7003   -1.8597 C.3     1  UNL1        0.1272
      2 C          62.2698   95.5035   -0.8119 C.2     1  UNL1        0.0260
      3 C          63.5418   96.2344   -0.4992 C.2     1  UNL1        0.0757
      4 N          63.4217   96.8030    0.8836 N.2     1  UNL1       -0.1569
      5 N          62.0755   96.4235    1.4256 N.2     1  UNL1       -0.1631
      6 C          61.3636   95.6204    0.3777 C.3     1  UNL1        0.2225
      7 C          60.0916   94.8895    0.0651 C.2     1  UNL1        0.2581
      8 O          58.9074   94.7514    0.9754 O.2     1  UNL1       -0.2720
      9 N          60.2116   94.3208   -1.3178 N.am    1  UNL1       -0.2508
     10 C          61.6209   95.0747   -4.4299 C.ar    1  UNL1        0.1366
     11 C          62.1605   94.7142   -5.7824 C.ar    1  UNL1        0.0366
     12 C          63.1764   93.6189   -5.9170 C.ar    1  UNL1        0.0031
     13 C          63.6528   92.8840   -4.6992 C.ar    1  UNL1       -0.0001
     14 C          63.1133   93.2445   -3.3468 C.ar    1  UNL1        0.0007
     15 C          62.0973   94.3398   -3.2121 C.ar    1  UNL1        0.0340
     16 C          60.0721   96.8534   -5.5197 C.3     1  UNL1        0.2525
     17 O          60.6050   96.1701   -4.2953 O.3     1  UNL1       -0.4717
     18 C          59.1686   93.5143   -2.0330 C.ar    1  UNL1        0.0544
     19 C          57.9887   92.9766   -1.2790 C.ar    1  UNL1        0.0150
     20 C          56.9456   92.1701   -1.9942 C.ar    1  UNL1        0.0029
     21 C          57.0825   91.9012   -3.4636 C.ar    1  UNL1        0.0210
     22 C          58.2625   92.4390   -4.2177 C.ar    1  UNL1        0.0029
     23 C          59.3055   93.2454   -3.5024 C.ar    1  UNL1        0.0150
     24 C          56.0395   91.0947   -4.1789 C.ar    1  UNL1        0.1231
     25 C          55.4718   91.3919   -5.5351 C.ar    1  UNL1        0.0658
     26 C          54.4625   90.3303   -5.8579 C.ar    1  UNL1        0.2138
     27 O          54.4064   89.3769   -4.7012 O.2     1  UNL1       -0.3502
     28 N          55.3810   89.8494   -3.6635 N.ar    1  UNL1       -0.0768
     29 C          64.7260   96.3724   -1.4096 C.3     1  UNL1        0.0367
     30 C          65.6265   95.8893   -0.3115 C.3     1  UNL1        0.0060
     31 C          63.8255   96.8554   -2.5077 C.3     1  UNL1        0.0060
     32 C          65.9101   96.5104   -2.3199 C.3     1  UNL1        0.0060
@<TRIPOS>BOND
     1    16    17    1
     2    17    10    1
     3    10    11   ar
     4    11    12   ar
     5    12    13   ar
     6    13    14   ar
     7    14    15   ar
     8    15     1    1
     9     1     2    1
    10     2     3    2
    11     3    29    1
    12    29    30    1
    13    29    31    1
    14    29    32    1
    15     3     4    1
    16     4     5    2
    17     5     6    1
    18     6     7    1
    19     7     8    2
    20     7     9   am
    21     9    18    1
    22    18    19   ar
    23    19    20   ar
    24    20    21   ar
    25    21    24    1
    26    24    25   ar
    27    25    26   ar
    28    26    27   ar
    29    27    28   ar
    30    21    22   ar
    31    22    23   ar
    32    15    10   ar
    33     9     1    1
    34    23    18   ar
    35     6     2    1
    36    28    24   ar
@<TRIPOS>MOLECULE
*****
 32 36 0 0 0
SMALL
GASTEIGER

@<TRIPOS>ATOM
      1 C          63.0400   87.8441   12.3308 C.3     1  UNL1        0.1272
      2 C          63.6534   89.1709   12.6677 C.2     1  UNL1        0.0260
      3 C          63.8151   90.5869   12.1999 C.2     1  UNL1        0.0757
      4 N          64.6457   91.3176   13.2128 N.2     1  UNL1       -0.1569
      5 N          64.9974   90.3533   14.3067 N.2     1  UNL1       -0.1631
      6 C          64.3840   89.0265   13.9697 C.3     1  UNL1        0.2225
      7 C          64.2223   87.6105   14.4375 C.2     1  UNL1        0.2581
      8 O          64.7913   87.0277   15.6971 O.2     1  UNL1       -0.2720
      9 N          63.3916   86.8797   13.4246 N.am    1  UNL1       -0.2508
     10 C          60.7585   87.8763   11.0883 C.ar    1  UNL1        0.1366
     11 C          59.9377   87.5680    9.8712 C.ar    1  UNL1        0.0366
     12 C          60.5775   86.9191    8.6797 C.ar    1  UNL1        0.0031
     13 C          62.0381   86.5786    8.7052 C.ar    1  UNL1       -0.0001
     14 C          62.8590   86.8870    9.9223 C.ar    1  UNL1        0.0007
     15 C          62.2192   87.5358   11.1138 C.ar    1  UNL1        0.0340
     16 C          58.6920   88.9829   12.2086 C.3     1  UNL1        0.2525
     17 O          60.1187   88.5251   12.2797 O.3     1  UNL1       -0.4717
     18 C          62.9841   85.4379   13.4934 C.ar    1  UNL1        0.0544
     19 C          63.0371   84.5839   12.2614 C.ar    1  UNL1        0.0150
     20 C          62.6296   83.1419   12.3301 C.ar    1  UNL1        0.0029
     21 C          62.1692   82.5539   13.6310 C.ar    1  UNL1        0.0210
     22 C          62.1162   83.4079   14.8631 C.ar    1  UNL1        0.0029
     23 C          62.5237   84.8498   14.7943 C.ar    1  UNL1        0.0150
     24 C          61.7617   81.1120   13.6998 C.ar    1  UNL1        0.1231
     25 C          62.5875   79.9403   13.2579 C.ar    1  UNL1        0.0658
     26 C          61.7930   78.6928   13.5076 C.ar    1  UNL1        0.2138
     27 O          60.4761   79.0934   14.1039 O.2     1  UNL1       -0.3502
     28 N          60.4568   80.5885   14.2227 N.ar    1  UNL1       -0.0768
     29 C          63.2461   91.1698   10.9404 C.3     1  UNL1        0.0367
     30 C          64.6276   91.5377   10.4865 C.3     1  UNL1        0.0060
     31 C          61.8645   90.8019   11.3942 C.3     1  UNL1        0.0060
     32 C          62.6771   91.7526    9.6808 C.3     1  UNL1        0.0060
@<TRIPOS>BOND
     1    16    17    1
     2    17    10    1
     3    10    11   ar
     4    11    12   ar
     5    12    13   ar
     6    13    14   ar
     7    14    15   ar
     8    15     1    1
     9     1     2    1
    10     2     3    2
    11     3    29    1
    12    29    30    1
    13    29    31    1
    14    29    32    1
    15     3     4    1
    16     4     5    2
    17     5     6    1
    18     6     7    1
    19     7     8    2
    20     7     9   am
    21     9    18    1
    22    18    19   ar
    23    19    20   ar
    24    20    21   ar
    25    21    24    1
    26    24    25   ar
    27    25    26   ar
    28    26    27   ar
    29    27    28   ar
    30    21    22   ar
    31    22    23   ar
    32    15    10   ar
    33     9     1    1
    34    23    18   ar
    35     6     2    1
    36    28    24   ar
@<TRIPOS>MOLECULE
*****
 32 36 0 0 0
SMALL
GASTEIGER

@<TRIPOS>ATOM
      1 C          64.8470   91.5006   13.6439 C.3     1  UNL1        0.1272
      2 C          65.2079   91.9147   15.0397 C.2     1  UNL1        0.0260
      3 C          66.1577   92.7440   15.8522 C.2     1  UNL1        0.0757
      4 N          65.7918   92.5848   17.2981 N.2     1  UNL1       -0.1569
      5 N          64.6158   91.6572   17.3793 N.2     1  UNL1       -0.1631
      6 C          64.2549   91.2430   15.9835 C.3     1  UNL1        0.2225
      7 C          63.3051   90.4138   15.1710 C.2     1  UNL1        0.2581
      8 O          62.1858   89.5730   15.7099 O.2     1  UNL1       -0.2720
      9 N          63.6710   90.5729   13.7250 N.am    1  UNL1       -0.2508
     10 C          67.0284   91.7940   12.2634 C.ar    1  UNL1        0.1366
     11 C          67.7217   92.2308   11.0069 C.ar    1  UNL1        0.0366
     12 C          66.9271   92.8110    9.8747 C.ar    1  UNL1        0.0031
     13 C          65.4391   92.9543    9.9988 C.ar    1  UNL1       -0.0001
     14 C          64.7457   92.5175   11.2553 C.ar    1  UNL1        0.0007
     15 C          65.5404   91.9374   12.3875 C.ar    1  UNL1        0.0340
     16 C          69.3099   91.4060   13.4441 C.3     1  UNL1        0.2525
     17 O          67.8230   91.2139   13.3957 O.3     1  UNL1       -0.4717
     18 C          62.9820   89.9193   12.5641 C.ar    1  UNL1        0.0544
     19 C          63.1643   88.4517   12.3131 C.ar    1  UNL1        0.0150
     20 C          62.4752   87.7980   11.1521 C.ar    1  UNL1        0.0029
     21 C          61.6038   88.6119   10.2421 C.ar    1  UNL1        0.0210
     22 C          61.4214   90.0795   10.4931 C.ar    1  UNL1        0.0029
     23 C          62.1105   90.7332   11.6540 C.ar    1  UNL1        0.0150
     24 C          60.9147   87.9582    9.0811 C.ar    1  UNL1        0.1231
     25 C          61.0428   86.5197    8.6759 C.ar    1  UNL1        0.0658
     26 C          60.1838   86.3008    7.4659 C.ar    1  UNL1        0.2138
     27 O          59.5248   87.6040    7.1233 O.2     1  UNL1       -0.3502
     28 N          59.9766   88.6284    8.1216 N.ar    1  UNL1       -0.0768
     29 C          67.2770   93.5848   15.3134 C.3     1  UNL1        0.0367
     30 C          68.2115   92.9884   16.3239 C.3     1  UNL1        0.0060
     31 C          66.3425   94.1811   14.3028 C.3     1  UNL1        0.0060
     32 C          68.3962   94.4256   14.7745 C.3     1  UNL1        0.0060
@<TRIPOS>BOND
     1    16    17    1
     2    17    10    1
     3    10    11   ar
     4    11    12   ar
     5    12    13   ar
     6    13    14   ar
     7    14    15   ar
     8    15     1    1
     9     1     2    1
    10     2     3    2
    11     3    29    1
    12    29    30    1
    13    29    31    1
    14    29    32    1
    15     3     4    1
    16     4     5    2
    17     5     6    1
    18     6     7    1
    19     7     8    2
    20     7     9   am
    21     9    18    1
    22    18    19   ar
    23    19    20   ar
    24    20    21   ar
    25    21    24    1
    26    24    25   ar
    27    25    26   ar
    28    26    27   ar
    29    27    28   ar
    30    21    22   ar
    31    22    23   ar
    32    15    10   ar
    33     9     1    1
    34    23    18   ar
    35     6     2    1
    36    28    24   ar
