@<TRIPOS>MOLECULE
*****
 36 39 0 0 0
SMALL
GASTEIGER

@<TRIPOS>ATOM
      1 N          63.7595   88.6244   14.6086 N.am    1  UNL1       -0.2680
      2 C          63.5224   87.3214   13.9043 C.2     1  UNL1        0.3092
      3 O          63.8241   87.1943   12.4405 O.2     1  UNL1       -0.2521
      4 N          62.9835   86.1455   14.6639 N.am    1  UNL1       -0.2533
      5 H          63.5614   88.7078   15.5693 H       1  UNL1        0.1564
      6 H          62.7855   86.2289   15.6246 H       1  UNL1        0.1578
      7 C          65.3760   92.1521   12.3299 C.ar    1  UNL1        0.0016
      8 C          64.1906   91.3986   11.8036 C.ar    1  UNL1        0.0013
      9 C          63.6518   90.2227   12.5632 C.ar    1  UNL1        0.0147
     10 C          64.2983   89.8003   13.8490 C.ar    1  UNL1        0.0516
     11 C          65.4837   90.5537   14.3753 C.ar    1  UNL1        0.0147
     12 C          66.0226   91.7296   13.6158 C.ar    1  UNL1        0.0013
     13 C          66.9925   95.6797   10.0513 C.ar    1  UNL1        0.2250
     14 C          66.7442   94.3803    9.3445 C.ar    1  UNL1        0.0577
     15 C          66.2053   93.2044   10.1040 C.ar    1  UNL1        0.0063
     16 C          65.9149   93.3279   11.5704 C.ar    1  UNL1        0.0194
     17 C          66.1632   94.6274   12.2772 C.ar    1  UNL1        0.1020
     18 N          66.7021   95.8033   11.5177 N.ar    1  UNL1       -0.2101
     19 C          67.5051   96.8557    7.7920 C.3     1  UNL1        0.2542
     20 O          67.5314   96.8556    9.2917 O.3     1  UNL1       -0.4561
     21 C          62.7464   84.8425   13.9596 C.ar    1  UNL1        0.1380
     22 C          63.0065   83.4763   14.5216 C.ar    1  UNL1        0.0509
     23 C          62.6285   82.4664   13.4789 C.ar    1  UNL1        0.0810
     24 N          62.1347   83.2085   12.2724 N.ar    1  UNL1       -0.1683
     25 N          62.2076   84.6769   12.5695 N.ar    1  UNL1       -0.2162
     26 C          61.8113   85.7853   11.6397 C.ar    1  UNL1        0.0842
     27 C          62.3851   85.8440   10.2551 C.ar    1  UNL1        0.0189
     28 C          61.9887   86.9523    9.3253 C.ar    1  UNL1       -0.0027
     29 C          61.0185   88.0020    9.7801 C.ar    1  UNL1       -0.0218
     30 C          60.6222   89.1103    8.8504 C.3     1  UNL1        0.0310
     31 C          60.4447   87.9434   11.1649 C.ar    1  UNL1       -0.0027
     32 C          60.8411   86.8350   12.0945 C.ar    1  UNL1        0.0189
     33 C          62.7269   80.9762   13.6183 C.3     1  UNL1        0.0372
     34 C          61.2400   80.8948   13.7988 C.3     1  UNL1        0.0060
     35 C          64.2138   81.0575   13.4377 C.3     1  UNL1        0.0060
     36 C          62.8253   79.4859   13.7576 C.3     1  UNL1        0.0060
@<TRIPOS>BOND
     1    19    20    1
     2    20    13    1
     3    13    14   ar
     4    14    15   ar
     5    15    16   ar
     6    16     7    1
     7     7     8   ar
     8     8     9   ar
     9     9    10   ar
    10    10     1    1
    11     1     2   am
    12     2     3    2
    13     2     4   am
    14     4    21    1
    15    21    22   ar
    16    22    23   ar
    17    23    33    1
    18    33    34    1
    19    33    35    1
    20    33    36    1
    21    23    24   ar
    22    24    25   ar
    23    25    26    1
    24    26    27   ar
    25    27    28   ar
    26    28    29   ar
    27    29    30    1
    28    29    31   ar
    29    31    32   ar
    30    10    11   ar
    31    11    12   ar
    32    16    17   ar
    33    17    18   ar
    34    18    13   ar
    35    12     7   ar
    36    25    21   ar
    37    32    26   ar
    38     1     5    1
    39     4     6    1
@<TRIPOS>MOLECULE
*****
 36 39 0 0 0
SMALL
GASTEIGER

@<TRIPOS>ATOM
      1 N          63.1043   90.3956   12.7282 N.am    1  UNL1       -0.2680
      2 C          64.1162   91.2421   12.0145 C.2     1  UNL1        0.3092
      3 O          65.1109   90.6035   11.0909 O.2     1  UNL1       -0.2521
      4 N          64.1336   92.7272   12.2245 N.am    1  UNL1       -0.2533
      5 H          62.4515   90.8147   13.3343 H       1  UNL1        0.1564
      6 H          63.4808   93.1464   12.8306 H       1  UNL1        0.1578
      7 C          63.0522   85.9401   12.0984 C.ar    1  UNL1        0.0016
      8 C          63.7956   86.5244   13.2629 C.ar    1  UNL1        0.0013
      9 C          63.8130   88.0095   13.4728 C.ar    1  UNL1        0.0147
     10 C          63.0870   88.9104   12.5182 C.ar    1  UNL1        0.0516
     11 C          62.3436   88.3262   11.3538 C.ar    1  UNL1        0.0147
     12 C          62.3262   86.8411   11.1438 C.ar    1  UNL1        0.0013
     13 C          63.0002   81.4847   11.4686 C.ar    1  UNL1        0.2250
     14 C          63.6198   82.3807   10.4375 C.ar    1  UNL1        0.0577
     15 C          63.6371   83.8659   10.6475 C.ar    1  UNL1        0.0063
     16 C          63.0349   84.4550   11.8885 C.ar    1  UNL1        0.0194
     17 C          62.4153   83.5590   12.9196 C.ar    1  UNL1        0.1020
     18 N          62.3979   82.0739   12.7096 N.ar    1  UNL1       -0.2101
     19 C          62.7055   79.4380    9.8958 C.3     1  UNL1        0.2542
     20 O          62.9828   79.9996   11.2587 O.3     1  UNL1       -0.4561
     21 C          65.1456   93.5738   11.5108 C.ar    1  UNL1        0.1380
     22 C          64.9337   94.2950   10.2127 C.ar    1  UNL1        0.0509
     23 C          66.2043   95.0147    9.8696 C.ar    1  UNL1        0.0810
     24 N          67.2015   94.7382   10.9556 N.ar    1  UNL1       -0.1683
     25 N          66.5471   93.8477   11.9699 N.ar    1  UNL1       -0.2162
     26 C          67.1827   93.3232   13.2232 C.ar    1  UNL1        0.0842
     27 C          66.8234   93.9185   14.5522 C.ar    1  UNL1        0.0189
     28 C          67.4590   93.3940   15.8056 C.ar    1  UNL1       -0.0027
     29 C          68.4540   92.2740   15.7299 C.ar    1  UNL1       -0.0218
     30 C          69.0896   91.7495   16.9832 C.3     1  UNL1        0.0310
     31 C          68.8133   91.6785   14.4008 C.ar    1  UNL1       -0.0027
     32 C          68.1777   92.2032   13.1475 C.ar    1  UNL1        0.0189
     33 C          66.4369   95.8621    8.6539 C.3     1  UNL1        0.0372
     34 C          65.4283   96.8542    9.1524 C.3     1  UNL1        0.0060
     35 C          67.4455   94.8700    8.1554 C.3     1  UNL1        0.0060
     36 C          66.6695   96.7094    7.4382 C.3     1  UNL1        0.0060
@<TRIPOS>BOND
     1    19    20    1
     2    20    13    1
     3    13    14   ar
     4    14    15   ar
     5    15    16   ar
     6    16     7    1
     7     7     8   ar
     8     8     9   ar
     9     9    10   ar
    10    10     1    1
    11     1     2   am
    12     2     3    2
    13     2     4   am
    14     4    21    1
    15    21    22   ar
    16    22    23   ar
    17    23    33    1
    18    33    34    1
    19    33    35    1
    20    33    36    1
    21    23    24   ar
    22    24    25   ar
    23    25    26    1
    24    26    27   ar
    25    27    28   ar
    26    28    29   ar
    27    29    30    1
    28    29    31   ar
    29    31    32   ar
    30    10    11   ar
    31    11    12   ar
    32    16    17   ar
    33    17    18   ar
    34    18    13   ar
    35    12     7   ar
    36    25    21   ar
    37    32    26   ar
    38     1     5    1
    39     4     6    1
@<TRIPOS>MOLECULE
*****
 36 39 0 0 0
SMALL
GASTEIGER

@<TRIPOS>ATOM
      1 N          59.8127   88.9632    7.6999 N.am    1  UNL1       -0.2680
      2 C          60.7784   89.1940    8.8242 C.2     1  UNL1        0.3092
      3 O          61.6952   90.3809    8.7937 O.2     1  UNL1       -0.2521
      4 N          60.8273   88.2381    9.9791 N.am    1  UNL1       -0.2533
      5 H          59.2110   88.1842    7.7199 H       1  UNL1        0.1564
      6 H          60.2256   87.4591    9.9991 H       1  UNL1        0.1578
      7 C          59.6659   91.8311    4.2353 C.ar    1  UNL1        0.0016
      8 C          58.4044   91.4640    4.9590 C.ar    1  UNL1        0.0013
      9 C          58.4533   90.5080    6.1138 C.ar    1  UNL1        0.0147
     10 C          59.7638   89.9191    6.5450 C.ar    1  UNL1        0.0516
     11 C          61.0253   90.2863    5.8213 C.ar    1  UNL1        0.0147
     12 C          60.9764   91.2423    4.6665 C.ar    1  UNL1        0.0013
     13 C          59.5191   94.6990    0.7707 C.ar    1  UNL1        0.2250
     14 C          59.0379   93.2889    0.5980 C.ar    1  UNL1        0.0577
     15 C          59.0868   92.3329    1.7528 C.ar    1  UNL1        0.0063
     16 C          59.6170   92.7871    3.0804 C.ar    1  UNL1        0.0194
     17 C          60.0982   94.1972    3.2532 C.ar    1  UNL1        0.1020
     18 N          60.0493   95.1532    2.0983 N.ar    1  UNL1       -0.2101
     19 C          58.1690   95.9245   -1.0801 C.3     1  UNL1        0.2542
     20 O          59.4702   95.6550   -0.3842 O.3     1  UNL1       -0.4561
     21 C          61.7931   88.4690   11.1034 C.ar    1  UNL1        0.1380
     22 C          62.0496   89.7773   11.7907 C.ar    1  UNL1        0.0509
     23 C          63.0869   89.5490   12.8499 C.ar    1  UNL1        0.0810
     24 N          63.4714   88.0994   12.8173 N.ar    1  UNL1       -0.1683
     25 N          62.6718   87.4320   11.7379 N.ar    1  UNL1       -0.2162
     26 C          62.7390   85.9821   11.3595 C.ar    1  UNL1        0.0842
     27 C          62.8832   85.5887    9.9193 C.ar    1  UNL1        0.0189
     28 C          62.9505   84.1388    9.5408 C.ar    1  UNL1       -0.0027
     29 C          62.8736   83.0822   10.6027 C.ar    1  UNL1       -0.0218
     30 C          62.9408   81.6323   10.2243 C.3     1  UNL1        0.0310
     31 C          62.7293   83.4755   12.0431 C.ar    1  UNL1       -0.0027
     32 C          62.6621   84.9254   12.4214 C.ar    1  UNL1        0.0189
     33 C          63.6421   90.5878   13.7787 C.3     1  UNL1        0.0372
     34 C          64.0365   91.4296   12.6014 C.3     1  UNL1        0.0060
     35 C          63.2478   89.7460   14.9559 C.3     1  UNL1        0.0060
     36 C          64.1974   91.6266   14.7074 C.3     1  UNL1        0.0060
@<TRIPOS>BOND
     1    19    20    1
     2    20    13    1
     3    13    14   ar
     4    14    15   ar
     5    15    16   ar
     6    16     7    1
     7     7     8   ar
     8     8     9   ar
     9     9    10   ar
    10    10     1    1
    11     1     2   am
    12     2     3    2
    13     2     4   am
    14     4    21    1
    15    21    22   ar
    16    22    23   ar
    17    23    33    1
    18    33    34    1
    19    33    35    1
    20    33    36    1
    21    23    24   ar
    22    24    25   ar
    23    25    26    1
    24    26    27   ar
    25    27    28   ar
    26    28    29   ar
    27    29    30    1
    28    29    31   ar
    29    31    32   ar
    30    10    11   ar
    31    11    12   ar
    32    16    17   ar
    33    17    18   ar
    34    18    13   ar
    35    12     7   ar
    36    25    21   ar
    37    32    26   ar
    38     1     5    1
    39     4     6    1
@<TRIPOS>MOLECULE
*****
 36 39 0 0 0
SMALL
GASTEIGER

@<TRIPOS>ATOM
      1 N          58.9857   90.2515    7.2489 N.am    1  UNL1       -0.2680
      2 C          60.1286   89.8374    8.1276 C.2     1  UNL1        0.3092
      3 O          61.5410   90.0903    7.6901 O.2     1  UNL1       -0.2521
      4 N          59.8593   89.1703    9.4438 N.am    1  UNL1       -0.2533
      5 H          58.0587   90.0855    7.5361 H       1  UNL1        0.1564
      6 H          58.9324   89.0042    9.7310 H       1  UNL1        0.1578
      7 C          59.7937   92.2529    3.3003 C.ar    1  UNL1        0.0016
      8 C          58.3982   92.2121    3.8488 C.ar    1  UNL1        0.0013
      9 C          58.1288   91.5450    5.1650 C.ar    1  UNL1        0.0147
     10 C          59.2550   90.9187    5.9327 C.ar    1  UNL1        0.0516
     11 C          60.6505   90.9595    5.3842 C.ar    1  UNL1        0.0147
     12 C          60.9198   91.6266    4.0680 C.ar    1  UNL1        0.0013
     13 C          60.6016   94.2543   -0.6484 C.ar    1  UNL1        0.2250
     14 C          59.2470   93.6766   -0.3636 C.ar    1  UNL1        0.0577
     15 C          58.9777   93.0094    0.9526 C.ar    1  UNL1        0.0063
     16 C          60.0630   92.9200    1.9841 C.ar    1  UNL1        0.0194
     17 C          61.4176   93.4978    1.6993 C.ar    1  UNL1        0.1020
     18 N          61.6870   94.1649    0.3831 N.ar    1  UNL1       -0.2101
     19 C          61.3013   94.1033   -3.1459 C.3     1  UNL1        0.2542
     20 O          60.8710   94.9214   -1.9646 O.3     1  UNL1       -0.4561
     21 C          61.0023   88.7561   10.3225 C.ar    1  UNL1        0.1380
     22 C          61.4490   89.4514   11.5743 C.ar    1  UNL1        0.0509
     23 C          62.6221   88.6989   12.1290 C.ar    1  UNL1        0.0810
     24 N          62.9004   87.5385   11.2201 N.ar    1  UNL1       -0.1683
     25 N          61.8993   87.5739   10.1036 N.ar    1  UNL1       -0.2162
     26 C          61.8107   86.5983    8.9677 C.ar    1  UNL1        0.0842
     27 C          60.5075   86.3952    8.2533 C.ar    1  UNL1        0.0189
     28 C          60.4190   85.4196    7.1173 C.ar    1  UNL1       -0.0027
     29 C          61.6337   84.6471    6.6957 C.ar    1  UNL1       -0.0218
     30 C          61.5451   83.6715    5.5598 C.3     1  UNL1        0.0310
     31 C          62.9370   84.8502    7.4101 C.ar    1  UNL1       -0.0027
     32 C          63.0254   85.8258    8.5460 C.ar    1  UNL1        0.0189
     33 C          63.3832   89.0459   13.3742 C.3     1  UNL1        0.0372
     34 C          63.7826   87.6085   13.5306 C.3     1  UNL1        0.0060
     35 C          62.9839   90.4833   13.2177 C.3     1  UNL1        0.0060
     36 C          64.1444   89.3929   14.6193 C.3     1  UNL1        0.0060
@<TRIPOS>BOND
     1    19    20    1
     2    20    13    1
     3    13    14   ar
     4    14    15   ar
     5    15    16   ar
     6    16     7    1
     7     7     8   ar
     8     8     9   ar
     9     9    10   ar
    10    10     1    1
    11     1     2   am
    12     2     3    2
    13     2     4   am
    14     4    21    1
    15    21    22   ar
    16    22    23   ar
    17    23    33    1
    18    33    34    1
    19    33    35    1
    20    33    36    1
    21    23    24   ar
    22    24    25   ar
    23    25    26    1
    24    26    27   ar
    25    27    28   ar
    26    28    29   ar
    27    29    30    1
    28    29    31   ar
    29    31    32   ar
    30    10    11   ar
    31    11    12   ar
    32    16    17   ar
    33    17    18   ar
    34    18    13   ar
    35    12     7   ar
    36    25    21   ar
    37    32    26   ar
    38     1     5    1
    39     4     6    1
@<TRIPOS>MOLECULE
*****
 36 39 0 0 0
SMALL
GASTEIGER

@<TRIPOS>ATOM
      1 N          59.8304   88.0571    9.9811 N.am    1  UNL1       -0.2680
      2 C          60.9821   87.2032   10.4222 C.2     1  UNL1        0.3092
      3 O          62.2275   87.1350    9.5889 O.2     1  UNL1       -0.2521
      4 N          60.8884   86.4176   11.6966 N.am    1  UNL1       -0.2533
      5 H          59.0130   88.1019   10.5280 H       1  UNL1        0.1564
      6 H          60.0710   86.4623   12.2435 H       1  UNL1        0.1578
      7 C          60.1115   90.4140    6.1581 C.ar    1  UNL1        0.0016
      8 C          60.9699   90.7831    7.3315 C.ar    1  UNL1        0.0013
      9 C          60.8762   89.9974    8.6059 C.ar    1  UNL1        0.0147
     10 C          59.9241   88.8427    8.7068 C.ar    1  UNL1        0.0516
     11 C          59.0658   88.4737    7.5333 C.ar    1  UNL1        0.0147
     12 C          59.1595   89.2594    6.2590 C.ar    1  UNL1        0.0013
     13 C          60.3927   92.7710    2.3350 C.ar    1  UNL1        0.2250
     14 C          61.6086   92.0862    2.8850 C.ar    1  UNL1        0.0577
     15 C          61.5148   91.3005    4.1594 C.ar    1  UNL1        0.0063
     16 C          60.2052   91.1997    4.8837 C.ar    1  UNL1        0.0194
     17 C          58.9893   91.8845    4.3337 C.ar    1  UNL1        0.1020
     18 N          59.0830   92.6702    3.0594 N.ar    1  UNL1       -0.2101
     19 C          60.9013   92.8772   -0.2105 C.3     1  UNL1        0.2542
     20 O          60.4864   93.5567    1.0607 O.3     1  UNL1       -0.4561
     21 C          62.0401   85.5637   12.1376 C.ar    1  UNL1        0.1380
     22 C          62.1528   84.0779   11.9655 C.ar    1  UNL1        0.0509
     23 C          63.4637   83.6417   12.5497 C.ar    1  UNL1        0.0810
     24 N          64.1612   84.8579   13.0830 N.ar    1  UNL1       -0.1683
     25 N          63.2813   86.0458   12.8283 N.ar    1  UNL1       -0.2162
     26 C          63.5888   87.4663   13.1991 C.ar    1  UNL1        0.0842
     27 C          64.2594   87.7722   14.5054 C.ar    1  UNL1        0.0189
     28 C          64.5669   89.1927   14.8763 C.ar    1  UNL1       -0.0027
     29 C          64.2036   90.3075   13.9407 C.ar    1  UNL1       -0.0218
     30 C          64.5111   91.7280   14.3116 C.3     1  UNL1        0.0310
     31 C          63.5329   90.0017   12.6342 C.ar    1  UNL1       -0.0027
     32 C          63.2255   88.5811   12.2635 C.ar    1  UNL1        0.0189
     33 C          63.9855   82.2360   12.5931 C.3     1  UNL1        0.0372
     34 C          63.6022   82.1384   14.0401 C.3     1  UNL1        0.0060
     35 C          64.3687   82.3336   11.1462 C.3     1  UNL1        0.0060
     36 C          64.5073   80.8304   12.6365 C.3     1  UNL1        0.0060
@<TRIPOS>BOND
     1    19    20    1
     2    20    13    1
     3    13    14   ar
     4    14    15   ar
     5    15    16   ar
     6    16     7    1
     7     7     8   ar
     8     8     9   ar
     9     9    10   ar
    10    10     1    1
    11     1     2   am
    12     2     3    2
    13     2     4   am
    14     4    21    1
    15    21    22   ar
    16    22    23   ar
    17    23    33    1
    18    33    34    1
    19    33    35    1
    20    33    36    1
    21    23    24   ar
    22    24    25   ar
    23    25    26    1
    24    26    27   ar
    25    27    28   ar
    26    28    29   ar
    27    29    30    1
    28    29    31   ar
    29    31    32   ar
    30    10    11   ar
    31    11    12   ar
    32    16    17   ar
    33    17    18   ar
    34    18    13   ar
    35    12     7   ar
    36    25    21   ar
    37    32    26   ar
    38     1     5    1
    39     4     6    1
