@<TRIPOS>MOLECULE
*****
 26 28 0 0 0
SMALL
GASTEIGER

@<TRIPOS>ATOM
      1 C          60.7183   89.8592   10.1786 C.3     1  UNL1        0.0992
      2 C          64.4047   91.3605   12.2778 C.3     1  UNL1        0.0792
      3 C          63.4127   90.5131   13.0180 C.3     1  UNL1        0.0264
      4 C          62.1839   90.0127   12.3183 C.3     1  UNL1        0.0729
      5 N          61.9471   90.3596   10.8783 N.3     1  UNL1       -0.2689
      6 C          62.9391   91.2069   10.1381 C.3     1  UNL1        0.0729
      7 C          64.1678   91.7074   10.8379 C.3     1  UNL1        0.0264
      8 N          66.0583   91.2468   14.2784 N.am    1  UNL1       -0.3043
      9 C          65.6334   91.8609   12.9776 C.2     1  UNL1        0.2221
     10 O          66.4373   92.9756   12.3765 O.2     1  UNL1       -0.2751
     11 H          65.5307   90.5152   14.6729 H       1  UNL1        0.1494
     12 C          67.1602   92.7194   16.1134 C.3     1  UNL1        0.0230
     13 C          67.2871   91.7472   14.9781 C.3     1  UNL1        0.0894
     14 C          60.7518   88.5489    9.4491 C.ar    1  UNL1       -0.0031
     15 C          59.5929   88.1395    8.5891 C.ar    1  UNL1       -0.0027
     16 C          59.6264   86.8292    7.8597 C.ar    1  UNL1        0.0029
     17 C          60.8187   85.9284    7.9902 C.ar    1  UNL1        0.0375
     18 C          61.9774   86.3378    8.8501 C.ar    1  UNL1        0.1450
     19 C          61.9440   87.6481    9.5796 C.ar    1  UNL1        0.0346
     20 O          63.1697   85.4370    8.9806 O.3     1  UNL1       -0.4535
     21 C          63.2680   84.4856   10.1361 C.ar    1  UNL1        0.1453
     22 C          64.0602   83.2191    9.9996 C.ar    1  UNL1        0.0375
     23 C          64.1585   82.2677   11.1551 C.ar    1  UNL1        0.0031
     24 C          63.4646   82.5828   12.4471 C.ar    1  UNL1        0.0002
     25 C          62.6725   83.8491   12.5836 C.ar    1  UNL1        0.0031
     26 C          62.5741   84.8006   11.4281 C.ar    1  UNL1        0.0375
@<TRIPOS>BOND
     1    12    13    1
     2    13     8    1
     3     8     9   am
     4     9    10    2
     5     9     2    1
     6     2     3    1
     7     3     4    1
     8     4     5    1
     9     5     1    1
    10     1    14    1
    11    14    15   ar
    12    15    16   ar
    13    16    17   ar
    14    17    18   ar
    15    18    20    1
    16    20    21    1
    17    21    22   ar
    18    22    23   ar
    19    23    24   ar
    20    24    25   ar
    21    25    26   ar
    22    18    19   ar
    23     5     6    1
    24     6     7    1
    25     7     2    1
    26    19    14   ar
    27    26    21   ar
    28     8    11    1
@<TRIPOS>MOLECULE
*****
 26 28 0 0 0
SMALL
GASTEIGER

@<TRIPOS>ATOM
      1 C          63.5699   90.5381   15.5423 C.3     1  UNL1        0.0992
      2 C          66.0250   92.1839   12.1491 C.3     1  UNL1        0.0792
      3 C          64.6152   91.7335   11.9052 C.3     1  UNL1        0.0264
      4 C          63.7969   91.1849   13.0363 C.3     1  UNL1        0.0729
      5 N          64.3883   91.0867   14.4112 N.3     1  UNL1       -0.2689
      6 C          65.7981   91.5371   14.6551 C.3     1  UNL1        0.0729
      7 C          66.6165   92.0857   13.5241 C.3     1  UNL1        0.0264
      8 N          66.2486   93.7437   10.0835 N.am    1  UNL1       -0.3043
      9 C          66.8434   92.7325   11.0181 C.2     1  UNL1        0.2221
     10 O          68.2567   92.2699   10.8216 O.2     1  UNL1       -0.2751
     11 H          65.3210   94.0474   10.2124 H       1  UNL1        0.1494
     12 C          67.4943   95.7302    8.9644 C.3     1  UNL1        0.0230
     13 C          67.0669   94.2923    8.9524 C.3     1  UNL1        0.0894
     14 C          63.5802   89.0661   15.8304 C.ar    1  UNL1       -0.0031
     15 C          62.9323   88.5413   17.0774 C.ar    1  UNL1       -0.0027
     16 C          62.9426   87.0693   17.3656 C.ar    1  UNL1        0.0029
     17 C          63.6009   86.1220   16.4068 C.ar    1  UNL1        0.0375
     18 C          64.2489   86.6467   15.1599 C.ar    1  UNL1        0.1450
     19 C          64.2385   88.1187   14.8717 C.ar    1  UNL1        0.0346
     20 O          64.9072   85.6993   14.2012 O.3     1  UNL1       -0.4535
     21 C          64.1280   84.5555   13.6229 C.ar    1  UNL1        0.1453
     22 C          64.1513   83.2155   14.2966 C.ar    1  UNL1        0.0375
     23 C          63.3721   82.0716   13.7184 C.ar    1  UNL1        0.0031
     24 C          62.5695   82.2677   12.4665 C.ar    1  UNL1        0.0002
     25 C          62.5461   83.6077   11.7928 C.ar    1  UNL1        0.0031
     26 C          63.3253   84.7516   12.3710 C.ar    1  UNL1        0.0375
@<TRIPOS>BOND
     1    12    13    1
     2    13     8    1
     3     8     9   am
     4     9    10    2
     5     9     2    1
     6     2     3    1
     7     3     4    1
     8     4     5    1
     9     5     1    1
    10     1    14    1
    11    14    15   ar
    12    15    16   ar
    13    16    17   ar
    14    17    18   ar
    15    18    20    1
    16    20    21    1
    17    21    22   ar
    18    22    23   ar
    19    23    24   ar
    20    24    25   ar
    21    25    26   ar
    22    18    19   ar
    23     5     6    1
    24     6     7    1
    25     7     2    1
    26    19    14   ar
    27    26    21   ar
    28     8    11    1
@<TRIPOS>MOLECULE
*****
 26 28 0 0 0
SMALL
GASTEIGER

@<TRIPOS>ATOM
      1 C          63.5050   90.1423   15.9441 C.3     1  UNL1        0.0992
      2 C          65.5425   92.0483   12.4133 C.3     1  UNL1        0.0792
      3 C          66.2203   92.0315   13.7513 C.3     1  UNL1        0.0264
      4 C          65.5412   91.3962   14.9282 C.3     1  UNL1        0.0729
      5 N          64.1842   90.7777   14.7672 N.3     1  UNL1       -0.2689
      6 C          63.5063   90.7945   13.4292 C.3     1  UNL1        0.0729
      7 C          64.1855   91.4298   12.2523 C.3     1  UNL1        0.0264
      8 N          67.6725   92.4113   10.9708 N.am    1  UNL1       -0.3043
      9 C          66.2216   92.6836   11.2364 C.2     1  UNL1        0.2221
     10 O          65.4498   93.5913   10.3251 O.2     1  UNL1       -0.2751
     11 H          68.1791   91.8156   11.5689 H       1  UNL1        0.1494
     12 C          68.7732   92.2042    8.6265 C.3     1  UNL1        0.0230
     13 C          68.3517   93.0466    9.7939 C.3     1  UNL1        0.0894
     14 C          63.5194   88.6509   16.1031 C.ar    1  UNL1       -0.0031
     15 C          62.8740   88.0180   17.3003 C.ar    1  UNL1       -0.0027
     16 C          62.8883   86.5266   17.4593 C.ar    1  UNL1        0.0029
     17 C          63.5480   85.6679   16.4213 C.ar    1  UNL1        0.0375
     18 C          64.1934   86.3007   15.2242 C.ar    1  UNL1        0.1450
     19 C          64.1791   87.7922   15.0651 C.ar    1  UNL1        0.0346
     20 O          64.8531   85.4421   14.1862 O.3     1  UNL1       -0.4535
     21 C          64.0967   84.3085   13.5593 C.ar    1  UNL1        0.1453
     22 C          64.0810   82.9615   14.2193 C.ar    1  UNL1        0.0375
     23 C          63.3246   81.8280   13.5925 C.ar    1  UNL1        0.0031
     24 C          62.5839   82.0414   12.3057 C.ar    1  UNL1        0.0002
     25 C          62.5996   83.3883   11.6457 C.ar    1  UNL1        0.0031
     26 C          63.3560   84.5219   12.2726 C.ar    1  UNL1        0.0375
@<TRIPOS>BOND
     1    12    13    1
     2    13     8    1
     3     8     9   am
     4     9    10    2
     5     9     2    1
     6     2     3    1
     7     3     4    1
     8     4     5    1
     9     5     1    1
    10     1    14    1
    11    14    15   ar
    12    15    16   ar
    13    16    17   ar
    14    17    18   ar
    15    18    20    1
    16    20    21    1
    17    21    22   ar
    18    22    23   ar
    19    23    24   ar
    20    24    25   ar
    21    25    26   ar
    22    18    19   ar
    23     5     6    1
    24     6     7    1
    25     7     2    1
    26    19    14   ar
    27    26    21   ar
    28     8    11    1
@<TRIPOS>MOLECULE
*****
 26 28 0 0 0
SMALL
GASTEIGER

@<TRIPOS>ATOM
      1 C          61.2455   89.3754   11.5162 C.3     1  UNL1        0.0992
      2 C          64.9173   91.6436   12.7900 C.3     1  UNL1        0.0792
      3 C          64.3806   91.8058   11.3988 C.3     1  UNL1        0.0264
      4 C          63.1567   91.0497   10.9742 C.3     1  UNL1        0.0729
      5 N          62.4694   90.1315   11.9408 N.3     1  UNL1       -0.2689
      6 C          63.0061   89.9693   13.3321 C.3     1  UNL1        0.0729
      7 C          64.2301   90.7253   13.7567 C.3     1  UNL1        0.0264
      8 N          66.2960   92.8358   14.6414 N.am    1  UNL1       -0.3043
      9 C          66.1413   92.3997   13.2146 C.2     1  UNL1        0.2221
     10 O          67.2105   92.7196   12.2125 O.2     1  UNL1       -0.2751
     11 H          65.5943   92.6258   15.2992 H       1  UNL1        0.1494
     12 C          68.5823   92.9067   15.8736 C.3     1  UNL1        0.0230
     13 C          67.5200   93.5919   15.0661 C.3     1  UNL1        0.0894
     14 C          61.3818   88.1291   10.6927 C.ar    1  UNL1       -0.0031
     15 C          60.6323   87.9986    9.3999 C.ar    1  UNL1       -0.0027
     16 C          60.7686   86.7524    8.5764 C.ar    1  UNL1        0.0029
     17 C          61.6546   85.6366    9.0456 C.ar    1  UNL1        0.0375
     18 C          62.4041   85.7671   10.3383 C.ar    1  UNL1        0.1450
     19 C          62.2678   87.0134   11.1619 C.ar    1  UNL1        0.0346
     20 O          63.2901   84.6513   10.8075 O.3     1  UNL1       -0.4535
     21 C          62.8991   83.8358   12.0041 C.ar    1  UNL1        0.1453
     22 C          62.8445   84.4734   13.3609 C.ar    1  UNL1        0.0375
     23 C          62.4535   83.6579   14.5576 C.ar    1  UNL1        0.0031
     24 C          62.1172   82.2048   14.3976 C.ar    1  UNL1        0.0002
     25 C          62.1718   81.5673   13.0410 C.ar    1  UNL1        0.0031
     26 C          62.5628   82.3828   11.8442 C.ar    1  UNL1        0.0375
@<TRIPOS>BOND
     1    12    13    1
     2    13     8    1
     3     8     9   am
     4     9    10    2
     5     9     2    1
     6     2     3    1
     7     3     4    1
     8     4     5    1
     9     5     1    1
    10     1    14    1
    11    14    15   ar
    12    15    16   ar
    13    16    17   ar
    14    17    18   ar
    15    18    20    1
    16    20    21    1
    17    21    22   ar
    18    22    23   ar
    19    23    24   ar
    20    24    25   ar
    21    25    26   ar
    22    18    19   ar
    23     5     6    1
    24     6     7    1
    25     7     2    1
    26    19    14   ar
    27    26    21   ar
    28     8    11    1
@<TRIPOS>MOLECULE
*****
 26 28 0 0 0
SMALL
GASTEIGER

@<TRIPOS>ATOM
      1 C          61.3986   89.2499   11.7662 C.3     1  UNL1        0.0992
      2 C          64.7647   92.2047   11.3317 C.3     1  UNL1        0.0792
      3 C          63.9106   91.8614   10.1475 C.3     1  UNL1        0.0264
      4 C          62.7886   90.8765   10.2923 C.3     1  UNL1        0.0729
      5 N          62.5207   90.2349   11.6213 N.3     1  UNL1       -0.2689
      6 C          63.3748   90.5782   12.8056 C.3     1  UNL1        0.0729
      7 C          64.4968   91.5631   12.6608 C.3     1  UNL1        0.0264
      8 N          65.6924   94.4334   10.3713 N.am    1  UNL1       -0.3043
      9 C          65.8868   93.1896   11.1869 C.2     1  UNL1        0.2221
     10 O          67.2032   92.9308   11.8577 O.2     1  UNL1       -0.2751
     11 H          64.8284   94.6032    9.9310 H       1  UNL1        0.1494
     12 C          67.5903   95.4881    8.9445 C.3     1  UNL1        0.0230
     13 C          66.8144   95.4183   10.2265 C.3     1  UNL1        0.0894
     14 C          61.3972   87.9897   10.9527 C.ar    1  UNL1       -0.0031
     15 C          60.4837   87.8616    9.7698 C.ar    1  UNL1       -0.0027
     16 C          60.4823   86.6014    8.9563 C.ar    1  UNL1        0.0029
     17 C          61.3943   85.4693    9.3256 C.ar    1  UNL1        0.0375
     18 C          62.3078   85.5973   10.5085 C.ar    1  UNL1        0.1450
     19 C          62.3092   86.8576   11.3220 C.ar    1  UNL1        0.0346
     20 O          63.2198   84.4652   10.8778 O.3     1  UNL1       -0.4535
     21 C          62.8635   83.5558   12.0162 C.ar    1  UNL1        0.1453
     22 C          62.6505   82.0918   11.7683 C.ar    1  UNL1        0.0375
     23 C          62.2941   81.1824   12.9066 C.ar    1  UNL1        0.0031
     24 C          62.1507   81.7369   14.2930 C.ar    1  UNL1        0.0002
     25 C          62.3637   83.2008   14.5409 C.ar    1  UNL1        0.0031
     26 C          62.7201   84.1103   13.4025 C.ar    1  UNL1        0.0375
@<TRIPOS>BOND
     1    12    13    1
     2    13     8    1
     3     8     9   am
     4     9    10    2
     5     9     2    1
     6     2     3    1
     7     3     4    1
     8     4     5    1
     9     5     1    1
    10     1    14    1
    11    14    15   ar
    12    15    16   ar
    13    16    17   ar
    14    17    18   ar
    15    18    20    1
    16    20    21    1
    17    21    22   ar
    18    22    23   ar
    19    23    24   ar
    20    24    25   ar
    21    25    26   ar
    22    18    19   ar
    23     5     6    1
    24     6     7    1
    25     7     2    1
    26    19    14   ar
    27    26    21   ar
    28     8    11    1
@<TRIPOS>MOLECULE
*****
 26 28 0 0 0
SMALL
GASTEIGER

@<TRIPOS>ATOM
      1 C          61.9694   88.6685   10.1265 C.3     1  UNL1        0.0992
      2 C          62.9908   84.3374   10.7967 C.3     1  UNL1        0.0792
      3 C          62.9253   84.8854    9.4020 C.3     1  UNL1        0.0264
      4 C          62.5849   86.3291    9.1786 C.3     1  UNL1        0.0729
      5 N          62.3099   87.2248   10.3499 N.3     1  UNL1       -0.2689
      6 C          62.3753   86.6768   11.7446 C.3     1  UNL1        0.0729
      7 C          62.7158   85.2331   11.9680 C.3     1  UNL1        0.0264
      8 N          62.4699   82.0494   11.9117 N.am    1  UNL1       -0.3043
      9 C          63.3312   82.8938   11.0201 C.2     1  UNL1        0.2221
     10 O          64.5330   82.2945   10.3519 O.2     1  UNL1       -0.2751
     11 H          61.6811   82.4427   12.3503 H       1  UNL1        0.1494
     12 C          62.3556   79.9127   13.3853 C.3     1  UNL1        0.0230
     13 C          62.8103   80.6057   12.1351 C.3     1  UNL1        0.0894
     14 C          62.7549   89.7406   10.8219 C.ar    1  UNL1       -0.0031
     15 C          63.2648   90.9192   10.0467 C.ar    1  UNL1       -0.0027
     16 C          64.0503   91.9913   10.7421 C.ar    1  UNL1        0.0029
     17 C          64.3258   91.8848   12.2127 C.ar    1  UNL1        0.0375
     18 C          63.8159   90.7063   12.9879 C.ar    1  UNL1        0.1450
     19 C          63.0304   89.6341   12.2925 C.ar    1  UNL1        0.0346
     20 O          64.0914   90.5999   14.4585 O.3     1  UNL1       -0.4535
     21 C          63.8870   89.2938   15.1673 C.ar    1  UNL1        0.1453
     22 C          63.1440   89.2556   16.4698 C.ar    1  UNL1        0.0375
     23 C          62.9396   87.9496   17.1786 C.ar    1  UNL1        0.0031
     24 C          63.4781   86.6817   16.5849 C.ar    1  UNL1        0.0002
     25 C          64.2211   86.7199   15.2825 C.ar    1  UNL1        0.0031
     26 C          64.4256   88.0260   14.5736 C.ar    1  UNL1        0.0375
@<TRIPOS>BOND
     1    12    13    1
     2    13     8    1
     3     8     9   am
     4     9    10    2
     5     9     2    1
     6     2     3    1
     7     3     4    1
     8     4     5    1
     9     5     1    1
    10     1    14    1
    11    14    15   ar
    12    15    16   ar
    13    16    17   ar
    14    17    18   ar
    15    18    20    1
    16    20    21    1
    17    21    22   ar
    18    22    23   ar
    19    23    24   ar
    20    24    25   ar
    21    25    26   ar
    22    18    19   ar
    23     5     6    1
    24     6     7    1
    25     7     2    1
    26    19    14   ar
    27    26    21   ar
    28     8    11    1
@<TRIPOS>MOLECULE
*****
 26 28 0 0 0
SMALL
GASTEIGER

@<TRIPOS>ATOM
      1 C          62.7943   89.4298   13.4008 C.3     1  UNL1        0.0992
      2 C          60.5951   89.0171    9.4965 C.3     1  UNL1        0.0792
      3 C          61.7918   88.1576    9.7778 C.3     1  UNL1        0.0264
      4 C          62.5249   88.2952   11.0792 C.3     1  UNL1        0.0729
      5 N          62.0612   89.2922   12.0994 N.3     1  UNL1       -0.2689
      6 C          60.8645   90.1517   11.8182 C.3     1  UNL1        0.0729
      7 C          60.1315   90.0142   10.5167 C.3     1  UNL1        0.0264
      8 N          59.8116   90.0327    7.2372 N.am    1  UNL1       -0.3043
      9 C          59.8621   88.8796    8.1951 C.2     1  UNL1        0.2221
     10 O          59.1796   87.5888    7.8515 O.2     1  UNL1       -0.2751
     11 H          60.2596   90.8799    7.4627 H       1  UNL1        0.1494
     12 C          58.5589   91.1155    5.2351 C.3     1  UNL1        0.0230
     13 C          59.0786   89.8952    5.9358 C.3     1  UNL1        0.0894
     14 C          63.9546   90.3738   13.5119 C.ar    1  UNL1       -0.0031
     15 C          64.9590   90.2014   14.6126 C.ar    1  UNL1       -0.0027
     16 C          66.1194   91.1454   14.7237 C.ar    1  UNL1        0.0029
     17 C          66.2753   92.2619   13.7342 C.ar    1  UNL1        0.0375
     18 C          65.2710   92.4343   12.6335 C.ar    1  UNL1        0.1450
     19 C          64.1105   91.4903   12.5224 C.ar    1  UNL1        0.0346
     20 O          65.4269   93.5508   11.6440 O.3     1  UNL1       -0.4535
     21 C          66.4677   93.4591   10.5677 C.ar    1  UNL1        0.1453
     22 C          66.6461   94.5901    9.5986 C.ar    1  UNL1        0.0375
     23 C          67.6868   94.4985    8.5223 C.ar    1  UNL1        0.0031
     24 C          68.5493   93.2759    8.4152 C.ar    1  UNL1        0.0002
     25 C          68.3710   92.1450    9.3842 C.ar    1  UNL1        0.0031
     26 C          67.3301   92.2366   10.4606 C.ar    1  UNL1        0.0375
@<TRIPOS>BOND
     1    12    13    1
     2    13     8    1
     3     8     9   am
     4     9    10    2
     5     9     2    1
     6     2     3    1
     7     3     4    1
     8     4     5    1
     9     5     1    1
    10     1    14    1
    11    14    15   ar
    12    15    16   ar
    13    16    17   ar
    14    17    18   ar
    15    18    20    1
    16    20    21    1
    17    21    22   ar
    18    22    23   ar
    19    23    24   ar
    20    24    25   ar
    21    25    26   ar
    22    18    19   ar
    23     5     6    1
    24     6     7    1
    25     7     2    1
    26    19    14   ar
    27    26    21   ar
    28     8    11    1
@<TRIPOS>MOLECULE
*****
 26 28 0 0 0
SMALL
GASTEIGER

@<TRIPOS>ATOM
      1 C          63.9066   89.1795   13.4487 C.3     1  UNL1        0.0992
      2 C          61.1304   88.7335    9.9354 C.3     1  UNL1        0.0792
      3 C          61.3783   90.0889   10.5281 C.3     1  UNL1        0.0264
      4 C          62.3037   90.2376   11.6992 C.3     1  UNL1        0.0729
      5 N          62.9812   89.0308   12.2776 N.3     1  UNL1       -0.2689
      6 C          62.7334   87.6754   11.6849 C.3     1  UNL1        0.0729
      7 C          61.8080   87.5268   10.5137 C.3     1  UNL1        0.0264
      8 N          60.0904   89.6879    7.7542 N.am    1  UNL1       -0.3043
      9 C          60.2050   88.5849    8.7642 C.2     1  UNL1        0.2221
     10 O          59.3942   87.3333    8.6032 O.2     1  UNL1       -0.2751
     11 H          60.6226   90.5094    7.8599 H       1  UNL1        0.1494
     12 C          59.0157   90.6607    5.5981 C.3     1  UNL1        0.0230
     13 C          59.1650   89.5392    6.5831 C.3     1  UNL1        0.0894
     14 C          63.7458   88.2941   14.6488 C.ar    1  UNL1       -0.0031
     15 C          63.1965   88.8555   15.9268 C.ar    1  UNL1       -0.0027
     16 C          63.0357   87.9701   17.1269 C.ar    1  UNL1        0.0029
     17 C          63.4241   86.5234   17.0491 C.ar    1  UNL1        0.0375
     18 C          63.9733   85.9620   15.7711 C.ar    1  UNL1        0.1450
     19 C          64.1342   86.8473   14.5710 C.ar    1  UNL1        0.0346
     20 O          64.3617   84.5152   15.6933 O.3     1  UNL1       -0.4535
     21 C          63.8017   83.6457   14.6069 C.ar    1  UNL1        0.1453
     22 C          62.5490   82.8567   14.8486 C.ar    1  UNL1        0.0375
     23 C          61.9890   81.9872   13.7622 C.ar    1  UNL1        0.0031
     24 C          62.6816   81.9067   12.4341 C.ar    1  UNL1        0.0002
     25 C          63.9342   82.6956   12.1924 C.ar    1  UNL1        0.0031
     26 C          64.4943   83.5652   13.2788 C.ar    1  UNL1        0.0375
@<TRIPOS>BOND
     1    12    13    1
     2    13     8    1
     3     8     9   am
     4     9    10    2
     5     9     2    1
     6     2     3    1
     7     3     4    1
     8     4     5    1
     9     5     1    1
    10     1    14    1
    11    14    15   ar
    12    15    16   ar
    13    16    17   ar
    14    17    18   ar
    15    18    20    1
    16    20    21    1
    17    21    22   ar
    18    22    23   ar
    19    23    24   ar
    20    24    25   ar
    21    25    26   ar
    22    18    19   ar
    23     5     6    1
    24     6     7    1
    25     7     2    1
    26    19    14   ar
    27    26    21   ar
    28     8    11    1
@<TRIPOS>MOLECULE
*****
 26 28 0 0 0
SMALL
GASTEIGER

@<TRIPOS>ATOM
      1 C          63.0168   84.8579   15.8368 C.3     1  UNL1        0.0992
      2 C          63.9739   89.2519   15.6729 C.3     1  UNL1        0.0792
      3 C          63.1368   88.7079   16.7924 C.3     1  UNL1        0.0264
      4 C          62.8178   87.2432   16.8470 C.3     1  UNL1        0.0729
      5 N          63.3359   86.3226   15.7822 N.3     1  UNL1       -0.2689
      6 C          64.1730   86.8666   14.6627 C.3     1  UNL1        0.0729
      7 C          64.4920   88.3313   14.6081 C.3     1  UNL1        0.0264
      8 N          65.4657   91.1993   14.8174 N.am    1  UNL1       -0.3043
      9 C          64.2930   90.7166   15.6183 C.2     1  UNL1        0.2221
     10 O          63.4393   91.6984   16.3646 O.2     1  UNL1       -0.2751
     11 H          66.0261   90.5549   14.3275 H       1  UNL1        0.1494
     12 C          67.0177   93.1887   15.4372 C.3     1  UNL1        0.0230
     13 C          65.7848   92.6640   14.7628 C.3     1  UNL1        0.0894
     14 C          62.8262   84.0840   14.5661 C.ar    1  UNL1       -0.0031
     15 C          62.4359   82.6366   14.6209 C.ar    1  UNL1       -0.0027
     16 C          62.2453   81.8627   13.3502 C.ar    1  UNL1        0.0029
     17 C          62.4450   82.5360   12.0248 C.ar    1  UNL1        0.0375
     18 C          62.8354   83.9832   11.9700 C.ar    1  UNL1        0.1450
     19 C          63.0260   84.7573   13.2407 C.ar    1  UNL1        0.0346
     20 O          63.0351   84.6565   10.6445 O.3     1  UNL1       -0.4535
     21 C          62.0052   85.6173   10.1287 C.ar    1  UNL1        0.1453
     22 C          61.3380   86.5775   11.0683 C.ar    1  UNL1        0.0375
     23 C          60.3081   87.5383   10.5524 C.ar    1  UNL1        0.0031
     24 C          59.9455   87.5390    9.0969 C.ar    1  UNL1        0.0002
     25 C          60.6127   86.5789    8.1573 C.ar    1  UNL1        0.0031
     26 C          61.6426   85.6180    8.6732 C.ar    1  UNL1        0.0375
@<TRIPOS>BOND
     1    12    13    1
     2    13     8    1
     3     8     9   am
     4     9    10    2
     5     9     2    1
     6     2     3    1
     7     3     4    1
     8     4     5    1
     9     5     1    1
    10     1    14    1
    11    14    15   ar
    12    15    16   ar
    13    16    17   ar
    14    17    18   ar
    15    18    20    1
    16    20    21    1
    17    21    22   ar
    18    22    23   ar
    19    23    24   ar
    20    24    25   ar
    21    25    26   ar
    22    18    19   ar
    23     5     6    1
    24     6     7    1
    25     7     2    1
    26    19    14   ar
    27    26    21   ar
    28     8    11    1
