@<TRIPOS>MOLECULE
*****
 24 26 0 0 0
SMALL
GASTEIGER

@<TRIPOS>ATOM
      1 C          64.3360   90.7859   13.1525 C.3     1  UNL1        0.2337
      2 N          65.1277   91.7043   12.2694 N.ar    1  UNL1       -0.2923
      3 C          66.4437   92.3969   12.4648 C.ar    1  UNL1        0.1796
      4 N          66.7366   93.1931   11.2277 N.ar    1  UNL1       -0.2226
      5 C          65.6015   92.9926   10.2678 C.ar    1  UNL1        0.1148
      6 C          64.6071   92.0724   10.9116 C.ar    1  UNL1        0.0770
      7 C          63.2950   91.5221   10.4369 C.3     1  UNL1        0.1409
      8 N          62.5033   90.6037   11.3200 N.3     1  UNL1       -0.1490
      9 S          63.0238   90.2356   12.6777 S.O2    1  UNL1        0.0628
     10 O          61.7371   89.4645   12.6742 O.2     1  UNL1       -0.1555
     11 O          63.0975   89.5997   14.0343 O.2     1  UNL1       -0.1555
     12 C          61.1911   90.0534   10.8452 C.3     1  UNL1        0.1019
     13 C          59.9073   90.6973   11.2780 C.3     1  UNL1        0.0240
     14 C          61.1627   88.8595    9.9378 C.ar    1  UNL1       -0.0061
     15 C          60.0419   88.6906    8.9552 C.ar    1  UNL1       -0.0021
     16 C          60.0135   87.4967    8.0478 C.ar    1  UNL1        0.0111
     17 C          61.1060   86.4714    8.1228 C.ar    1  UNL1        0.0577
     18 CL         61.0776   85.2774    7.2153 Cl      1  UNL1       -0.0822
     19 C          62.2268   86.6403    9.1053 C.ar    1  UNL1        0.0111
     20 C          62.2551   87.8343   10.0128 C.ar    1  UNL1       -0.0021
     21 C          64.8565   90.4178   14.5103 C.3     1  UNL1        0.0490
     22 C          66.1283   92.3553   15.6841 C.3     1  UNL1        0.0001
     23 C          64.9321   91.4551   15.5911 C.3     1  UNL1        0.0037
     24 C          63.8116   91.5922   16.5789 C.3     1  UNL1        0.0001
@<TRIPOS>BOND
     1    22    23    1
     2    23    24    1
     3    23    21    1
     4    21     1    1
     5     1     2    1
     6     2     3   ar
     7     3     4   ar
     8     4     5   ar
     9     5     6   ar
    10     6     7    1
    11     7     8    1
    12     8    12    1
    13    12    13    1
    14    12    14    1
    15    14    15   ar
    16    15    16   ar
    17    16    17   ar
    18    17    18    1
    19    17    19   ar
    20    19    20   ar
    21     8     9    1
    22     9    10    2
    23     9    11    2
    24     9     1    1
    25     6     2   ar
    26    20    14   ar
@<TRIPOS>MOLECULE
*****
 24 26 0 0 0
SMALL
GASTEIGER

@<TRIPOS>ATOM
      1 C          61.9444   86.7733   10.8899 C.3     1  UNL1        0.2337
      2 N          61.0343   87.3715    9.8585 N.ar    1  UNL1       -0.2923
      3 C          60.2156   86.7546    8.7635 C.ar    1  UNL1        0.1796
      4 N          59.4991   87.8578    8.0428 N.ar    1  UNL1       -0.2226
      5 C          59.8749   89.1566    8.6924 C.ar    1  UNL1        0.1148
      6 C          60.8238   88.8560    9.8146 C.ar    1  UNL1        0.0770
      7 C          61.5232   89.7423   10.8021 C.3     1  UNL1        0.1409
      8 N          62.4333   89.1441   11.8335 N.3     1  UNL1       -0.1490
      9 S          62.6439   87.6597   11.8775 S.O2    1  UNL1        0.0628
     10 O          63.5225   88.0813   13.0179 O.2     1  UNL1       -0.1555
     11 O          63.1596   86.3215   12.3175 O.2     1  UNL1       -0.1555
     12 C          63.1328   90.0305   12.8211 C.3     1  UNL1        0.1019
     13 C          62.8894   89.8544   14.2907 C.3     1  UNL1        0.0240
     14 C          64.0756   91.0928   12.3390 C.ar    1  UNL1       -0.0061
     15 C          64.0189   91.5552   10.9131 C.ar    1  UNL1       -0.0021
     16 C          64.9616   92.6175   10.4311 C.ar    1  UNL1        0.0111
     17 C          65.9613   93.2176   11.3749 C.ar    1  UNL1        0.0577
     18 CL         66.9041   94.2800   10.8928 Cl      1  UNL1       -0.0822
     19 C          66.0180   92.7554   12.8007 C.ar    1  UNL1        0.0111
     20 C          65.0752   91.6929   13.2828 C.ar    1  UNL1       -0.0021
     21 C          62.1550   85.2888   10.9340 C.3     1  UNL1        0.0490
     22 C          63.8763   83.4324   10.3502 C.3     1  UNL1        0.0001
     23 C          63.0716   84.6317    9.9450 C.3     1  UNL1        0.0037
     24 C          63.1836   85.1739    8.5509 C.3     1  UNL1        0.0001
@<TRIPOS>BOND
     1    22    23    1
     2    23    24    1
     3    23    21    1
     4    21     1    1
     5     1     2    1
     6     2     3   ar
     7     3     4   ar
     8     4     5   ar
     9     5     6   ar
    10     6     7    1
    11     7     8    1
    12     8    12    1
    13    12    13    1
    14    12    14    1
    15    14    15   ar
    16    15    16   ar
    17    16    17   ar
    18    17    18    1
    19    17    19   ar
    20    19    20   ar
    21     8     9    1
    22     9    10    2
    23     9    11    2
    24     9     1    1
    25     6     2   ar
    26    20    14   ar
@<TRIPOS>MOLECULE
*****
 24 26 0 0 0
SMALL
GASTEIGER

@<TRIPOS>ATOM
      1 C          63.5875   86.1660   13.1123 C.3     1  UNL1        0.2337
      2 N          62.7387   86.1473   11.8757 N.ar    1  UNL1       -0.2923
      3 C          62.2183   85.0211   11.0326 C.ar    1  UNL1        0.1796
      4 N          61.4168   85.6135    9.9115 N.ar    1  UNL1       -0.2226
      5 C          61.4419   87.1057   10.0618 C.ar    1  UNL1        0.1148
      6 C          62.2589   87.4357   11.2758 C.ar    1  UNL1        0.0770
      7 C          62.6279   88.7427   11.9124 C.3     1  UNL1        0.1409
      8 N          63.4767   88.7615   13.1490 N.3     1  UNL1       -0.1490
      9 S          63.9565   87.4732   13.7489 S.O2    1  UNL1        0.0628
     10 O          64.5656   88.4508   14.7099 O.2     1  UNL1       -0.1555
     11 O          64.6478   86.5243   14.6826 O.2     1  UNL1       -0.1555
     12 C          63.8457   90.0687   13.7856 C.3     1  UNL1        0.1019
     13 C          63.4571   90.3464   15.2075 C.3     1  UNL1        0.0240
     14 C          64.6031   91.0980   13.0004 C.ar    1  UNL1       -0.0061
     15 C          65.8050   91.7648   13.6011 C.ar    1  UNL1       -0.0021
     16 C          66.5625   92.7941   12.8158 C.ar    1  UNL1        0.0111
     17 C          66.1180   93.1567   11.4297 C.ar    1  UNL1        0.0577
     18 CL         66.8755   94.1860   10.6445 Cl      1  UNL1       -0.0822
     19 C          64.9162   92.4899   10.8290 C.ar    1  UNL1        0.0111
     20 C          64.1587   91.4605   11.6144 C.ar    1  UNL1       -0.0021
     21 C          64.0673   84.8777   13.7123 C.3     1  UNL1        0.0490
     22 C          63.0241   82.5012   13.5965 C.3     1  UNL1        0.0001
     23 C          63.0767   83.8681   14.2118 C.3     1  UNL1        0.0037
     24 C          62.1389   84.2255   15.3266 C.3     1  UNL1        0.0001
@<TRIPOS>BOND
     1    22    23    1
     2    23    24    1
     3    23    21    1
     4    21     1    1
     5     1     2    1
     6     2     3   ar
     7     3     4   ar
     8     4     5   ar
     9     5     6   ar
    10     6     7    1
    11     7     8    1
    12     8    12    1
    13    12    13    1
    14    12    14    1
    15    14    15   ar
    16    15    16   ar
    17    16    17   ar
    18    17    18    1
    19    17    19   ar
    20    19    20   ar
    21     8     9    1
    22     9    10    2
    23     9    11    2
    24     9     1    1
    25     6     2   ar
    26    20    14   ar
@<TRIPOS>MOLECULE
*****
 24 26 0 0 0
SMALL
GASTEIGER

@<TRIPOS>ATOM
      1 C          62.7167   89.0295   12.0889 C.3     1  UNL1        0.2337
      2 N          61.9270   88.5675   10.9003 N.ar    1  UNL1       -0.2923
      3 C          61.1993   89.3189    9.8252 C.ar    1  UNL1        0.1796
      4 N          60.5869   88.3164    8.8924 N.ar    1  UNL1       -0.2226
      5 C          60.9361   86.9454    9.3911 C.ar    1  UNL1        0.1148
      6 C          61.7643   87.1007   10.6321 C.ar    1  UNL1        0.0770
      7 C          62.3914   86.0958   11.5524 C.3     1  UNL1        0.1409
      8 N          63.1812   86.5579   12.7410 N.3     1  UNL1       -0.1490
      9 S          63.3438   88.0246   13.0093 S.O2    1  UNL1        0.0628
     10 O          64.1212   87.4613   14.1619 O.2     1  UNL1       -0.1555
     11 O          63.7765   89.2959   13.6778 O.2     1  UNL1       -0.1555
     12 C          63.8082   85.5530   13.6614 C.3     1  UNL1        0.1019
     13 C          64.8172   85.9954   14.6794 C.3     1  UNL1        0.0240
     14 C          63.4264   84.1058   13.5639 C.ar    1  UNL1       -0.0061
     15 C          64.0673   83.2290   12.5291 C.ar    1  UNL1       -0.0021
     16 C          63.6854   81.7818   12.4315 C.ar    1  UNL1        0.0111
     17 C          62.6626   81.2111   13.3687 C.ar    1  UNL1        0.0577
     18 CL         62.2807   79.7638   13.2711 Cl      1  UNL1       -0.0822
     19 C          62.0217   82.0878   14.4035 C.ar    1  UNL1        0.0111
     20 C          62.4036   83.5351   14.5010 C.ar    1  UNL1       -0.0021
     21 C          62.8795   90.4964   12.3572 C.3     1  UNL1        0.0490
     22 C          65.0136   91.9567   12.1076 C.3     1  UNL1        0.0001
     23 C          63.7988   91.3176   11.5027 C.3     1  UNL1        0.0037
     24 C          63.5035   91.4999   10.0435 C.3     1  UNL1        0.0001
@<TRIPOS>BOND
     1    22    23    1
     2    23    24    1
     3    23    21    1
     4    21     1    1
     5     1     2    1
     6     2     3   ar
     7     3     4   ar
     8     4     5   ar
     9     5     6   ar
    10     6     7    1
    11     7     8    1
    12     8    12    1
    13    12    13    1
    14    12    14    1
    15    14    15   ar
    16    15    16   ar
    17    16    17   ar
    18    17    18    1
    19    17    19   ar
    20    19    20   ar
    21     8     9    1
    22     9    10    2
    23     9    11    2
    24     9     1    1
    25     6     2   ar
    26    20    14   ar
@<TRIPOS>MOLECULE
*****
 24 26 0 0 0
SMALL
GASTEIGER

@<TRIPOS>ATOM
      1 C          63.6883   87.9432   13.3728 C.3     1  UNL1        0.2337
      2 N          64.0663   89.3925   13.2931 N.ar    1  UNL1       -0.2923
      3 C          65.0600   90.2142   14.0595 C.ar    1  UNL1        0.1796
      4 N          64.9999   91.6194   13.5380 N.ar    1  UNL1       -0.2226
      5 C          63.9691   91.6661   12.4493 C.ar    1  UNL1        0.1148
      6 C          63.3921   90.2898   12.2979 C.ar    1  UNL1        0.0770
      7 C          62.3399   89.7377   11.3825 C.3     1  UNL1        0.1409
      8 N          61.9619   88.2884   11.4623 N.3     1  UNL1       -0.1490
      9 S          62.6360   87.3911   12.4573 S.O2    1  UNL1        0.0628
     10 O          61.7057   86.4088   11.8094 O.2     1  UNL1       -0.1555
     11 O          62.9872   86.1527   13.2275 O.2     1  UNL1       -0.1555
     12 C          60.9096   87.7363   10.5468 C.3     1  UNL1        0.1019
     13 C          59.4647   88.0637   10.7814 C.3     1  UNL1        0.0240
     14 C          61.3022   86.8570    9.3968 C.ar    1  UNL1       -0.0061
     15 C          62.7247   86.4036    9.2508 C.ar    1  UNL1       -0.0021
     16 C          63.1173   85.5243    8.1009 C.ar    1  UNL1        0.0111
     17 C          62.0875   85.0982    7.0967 C.ar    1  UNL1        0.0577
     18 CL         62.4802   84.2189    5.9467 Cl      1  UNL1       -0.0822
     19 C          60.6651   85.5516    7.2427 C.ar    1  UNL1        0.0111
     20 C          60.2725   86.4310    8.3927 C.ar    1  UNL1       -0.0021
     21 C          64.3625   87.0458   14.3680 C.3     1  UNL1        0.0490
     22 C          63.3346   88.1608   16.4774 C.3     1  UNL1        0.0001
     23 C          63.8244   86.9357   15.7638 C.3     1  UNL1        0.0037
     24 C          63.7760   85.6007   16.4459 C.3     1  UNL1        0.0001
@<TRIPOS>BOND
     1    22    23    1
     2    23    24    1
     3    23    21    1
     4    21     1    1
     5     1     2    1
     6     2     3   ar
     7     3     4   ar
     8     4     5   ar
     9     5     6   ar
    10     6     7    1
    11     7     8    1
    12     8    12    1
    13    12    13    1
    14    12    14    1
    15    14    15   ar
    16    15    16   ar
    17    16    17   ar
    18    17    18    1
    19    17    19   ar
    20    19    20   ar
    21     8     9    1
    22     9    10    2
    23     9    11    2
    24     9     1    1
    25     6     2   ar
    26    20    14   ar
@<TRIPOS>MOLECULE
*****
 24 26 0 0 0
SMALL
GASTEIGER

@<TRIPOS>ATOM
      1 C          62.7794   88.2306   11.8455 C.3     1  UNL1        0.2337
      2 N          63.5024   89.3019   12.6069 N.ar    1  UNL1       -0.2923
      3 C          63.6642   90.7727   12.3609 C.ar    1  UNL1        0.1796
      4 N          64.5008   91.3387   13.4699 N.ar    1  UNL1       -0.2226
      5 C          64.8559   90.2178   14.4012 C.ar    1  UNL1        0.1148
      6 C          64.2388   88.9589   13.8678 C.ar    1  UNL1        0.0770
      7 C          64.2524   87.5446   14.3674 C.3     1  UNL1        0.1409
      8 N          63.5295   86.4733   13.6060 N.3     1  UNL1       -0.1490
      9 S          62.7930   86.8163   12.3452 S.O2    1  UNL1        0.0628
     10 O          62.5176   85.3434   12.4153 O.2     1  UNL1       -0.1555
     11 O          61.9609   86.6478   11.1085 O.2     1  UNL1       -0.1555
     12 C          63.5431   85.0590   14.1057 C.3     1  UNL1        0.1019
     13 C          63.6293   84.7845   15.5778 C.3     1  UNL1        0.0240
     14 C          63.4705   83.9193   13.1333 C.ar    1  UNL1       -0.0061
     15 C          64.4342   83.8499   11.9858 C.ar    1  UNL1       -0.0021
     16 C          64.3616   82.7102   11.0134 C.ar    1  UNL1        0.0111
     17 C          63.3254   81.6398   11.1883 C.ar    1  UNL1        0.0577
     18 CL         63.2528   80.5000   10.2159 Cl      1  UNL1       -0.0822
     19 C          62.3617   81.7091   12.3358 C.ar    1  UNL1        0.0111
     20 C          62.4344   82.8489   13.3082 C.ar    1  UNL1       -0.0021
     21 C          62.0429   88.5735   10.5845 C.3     1  UNL1        0.0490
     22 C          60.1163   89.6132   11.9834 C.3     1  UNL1        0.0001
     23 C          60.7500   89.3308   10.6535 C.3     1  UNL1        0.0037
     24 C          60.0907   89.8057    9.3926 C.3     1  UNL1        0.0001
@<TRIPOS>BOND
     1    22    23    1
     2    23    24    1
     3    23    21    1
     4    21     1    1
     5     1     2    1
     6     2     3   ar
     7     3     4   ar
     8     4     5   ar
     9     5     6   ar
    10     6     7    1
    11     7     8    1
    12     8    12    1
    13    12    13    1
    14    12    14    1
    15    14    15   ar
    16    15    16   ar
    17    16    17   ar
    18    17    18    1
    19    17    19   ar
    20    19    20   ar
    21     8     9    1
    22     9    10    2
    23     9    11    2
    24     9     1    1
    25     6     2   ar
    26    20    14   ar
@<TRIPOS>MOLECULE
*****
 24 26 0 0 0
SMALL
GASTEIGER

@<TRIPOS>ATOM
      1 C          70.6300   71.7642   12.0530 C.3     1  UNL1        0.2337
      2 N          71.4449   71.3854   10.8519 N.ar    1  UNL1       -0.2923
      3 C          71.2287   70.3654    9.7735 C.ar    1  UNL1        0.1796
      4 N          72.3898   70.4389    8.8267 N.ar    1  UNL1       -0.2226
      5 C          73.3235   71.5043    9.3198 C.ar    1  UNL1        0.1148
      6 C          72.7394   72.0893   10.5715 C.ar    1  UNL1        0.0770
      7 C          73.2192   73.1719   11.4923 C.3     1  UNL1        0.1409
      8 N          72.4044   73.5507   12.6933 N.3     1  UNL1       -0.1490
      9 S          71.1099   72.8469   12.9737 S.O2    1  UNL1        0.0628
     10 O          71.1442   73.8000   14.1315 O.2     1  UNL1       -0.1555
     11 O          69.8271   72.4740   13.6562 O.2     1  UNL1       -0.1555
     12 C          72.8842   74.6334   13.6140 C.3     1  UNL1        0.1019
     13 C          73.6328   74.2775   14.8642 C.3     1  UNL1        0.0240
     14 C          72.6155   76.0718   13.2846 C.ar    1  UNL1       -0.0061
     15 C          72.0563   76.4421   11.9428 C.ar    1  UNL1       -0.0021
     16 C          71.7876   77.8805   11.6133 C.ar    1  UNL1        0.0111
     17 C          72.0781   78.9488   12.6256 C.ar    1  UNL1        0.0577
     18 CL         71.8093   80.3872   12.2961 Cl      1  UNL1       -0.0822
     19 C          72.6373   78.5785   13.9673 C.ar    1  UNL1        0.0111
     20 C          72.9060   77.1400   14.2967 C.ar    1  UNL1       -0.0021
     21 C          69.3354   71.0603   12.3334 C.3     1  UNL1        0.0490
     22 C          70.2141   68.9051   13.4877 C.3     1  UNL1        0.0001
     23 C          69.3113   69.5688   12.4905 C.3     1  UNL1        0.0037
     24 C          68.3845   68.7410   11.6505 C.3     1  UNL1        0.0001
@<TRIPOS>BOND
     1    22    23    1
     2    23    24    1
     3    23    21    1
     4    21     1    1
     5     1     2    1
     6     2     3   ar
     7     3     4   ar
     8     4     5   ar
     9     5     6   ar
    10     6     7    1
    11     7     8    1
    12     8    12    1
    13    12    13    1
    14    12    14    1
    15    14    15   ar
    16    15    16   ar
    17    16    17   ar
    18    17    18    1
    19    17    19   ar
    20    19    20   ar
    21     8     9    1
    22     9    10    2
    23     9    11    2
    24     9     1    1
    25     6     2   ar
    26    20    14   ar
@<TRIPOS>MOLECULE
*****
 24 26 0 0 0
SMALL
GASTEIGER

@<TRIPOS>ATOM
      1 C          61.2629   92.8454   -0.7620 C.3     1  UNL1        0.2337
      2 N          62.2759   93.6279   -1.5440 N.ar    1  UNL1       -0.2923
      3 C          63.7275   93.9165   -1.3001 C.ar    1  UNL1        0.1796
      4 N          64.2294   94.7600   -2.4343 N.ar    1  UNL1       -0.2226
      5 C          63.0879   94.9929   -3.3792 C.ar    1  UNL1        0.1148
      6 C          61.8806   94.2932   -2.8290 C.ar    1  UNL1        0.0770
      7 C          60.4723   94.1759   -3.3320 C.3     1  UNL1        0.1409
      8 N          59.4594   93.3933   -2.5500 N.3     1  UNL1       -0.1490
      9 S          59.8546   92.7281   -1.2651 S.O2    1  UNL1        0.0628
     10 O          58.4093   92.3320   -1.3296 O.2     1  UNL1       -0.1555
     11 O          59.7480   91.9253   -0.0025 O.2     1  UNL1       -0.1555
     12 C          58.0511   93.2761   -3.0531 C.3     1  UNL1        0.1019
     13 C          57.7134   92.2647   -4.1081 C.3     1  UNL1        0.0240
     14 C          56.9806   94.1701   -2.5013 C.ar    1  UNL1       -0.0061
     15 C          57.3240   95.5564   -2.0425 C.ar    1  UNL1       -0.0021
     16 C          56.2535   96.4505   -1.4907 C.ar    1  UNL1        0.0111
     17 C          54.8396   95.9584   -1.3975 C.ar    1  UNL1        0.0577
     18 CL         53.7691   96.8525   -0.8456 Cl      1  UNL1       -0.0822
     19 C          54.4961   94.5722   -1.8562 C.ar    1  UNL1        0.0111
     20 C          55.5667   93.6781   -2.4081 C.ar    1  UNL1       -0.0021
     21 C          61.6582   92.1801    0.5230 C.3     1  UNL1        0.0490
     22 C          61.8044   94.4039    1.8583 C.3     1  UNL1        0.0001
     23 C          62.2556   92.9909    1.6345 C.3     1  UNL1        0.0037
     24 C          63.3040   92.3889    2.5224 C.3     1  UNL1        0.0001
@<TRIPOS>BOND
     1    22    23    1
     2    23    24    1
     3    23    21    1
     4    21     1    1
     5     1     2    1
     6     2     3   ar
     7     3     4   ar
     8     4     5   ar
     9     5     6   ar
    10     6     7    1
    11     7     8    1
    12     8    12    1
    13    12    13    1
    14    12    14    1
    15    14    15   ar
    16    15    16   ar
    17    16    17   ar
    18    17    18    1
    19    17    19   ar
    20    19    20   ar
    21     8     9    1
    22     9    10    2
    23     9    11    2
    24     9     1    1
    25     6     2   ar
    26    20    14   ar
@<TRIPOS>MOLECULE
*****
 24 26 0 0 0
SMALL
GASTEIGER

@<TRIPOS>ATOM
      1 C          63.6765   86.4255   13.6504 C.3     1  UNL1        0.2337
      2 N          63.4034   85.4490   12.5450 N.ar    1  UNL1       -0.2923
      3 C          63.6495   83.9742   12.4251 C.ar    1  UNL1        0.1796
      4 N          63.1654   83.5318   11.0760 N.ar    1  UNL1       -0.2226
      5 C          62.6202   84.7331   10.3622 C.ar    1  UNL1        0.1148
      6 C          62.7673   85.9181   11.2701 C.ar    1  UNL1        0.0770
      7 C          62.4042   87.3636   11.1006 C.3     1  UNL1        0.1409
      8 N          62.6773   88.3400   12.2060 N.3     1  UNL1       -0.1490
      9 S          63.3133   87.8710   13.4809 S.O2    1  UNL1        0.0628
     10 O          63.1516   89.3296   13.7917 O.2     1  UNL1       -0.1555
     11 O          63.8933   87.9085   14.8638 O.2     1  UNL1       -0.1555
     12 C          62.3141   89.7855   12.0365 C.3     1  UNL1        0.1019
     13 C          60.8756   90.2079   12.0837 C.3     1  UNL1        0.0240
     14 C          63.3894   90.8085   11.8198 C.ar    1  UNL1       -0.0061
     15 C          63.6255   91.3697   10.4489 C.ar    1  UNL1       -0.0021
     16 C          64.7008   92.3928   10.2322 C.ar    1  UNL1        0.0111
     17 C          65.5402   92.8547   11.3865 C.ar    1  UNL1        0.0577
     18 CL         66.6155   93.8778   11.1698 Cl      1  UNL1       -0.0822
     19 C          65.3041   92.2935   12.7574 C.ar    1  UNL1        0.0111
     20 C          64.2287   91.2705   12.9740 C.ar    1  UNL1       -0.0021
     21 C          64.3126   85.9565   14.9254 C.3     1  UNL1        0.0490
     22 C          63.1052   86.0199   17.2249 C.3     1  UNL1        0.0001
     23 C          63.4803   85.2810   15.9746 C.3     1  UNL1        0.0037
     24 C          63.0230   83.8666   15.7735 C.3     1  UNL1        0.0001
@<TRIPOS>BOND
     1    22    23    1
     2    23    24    1
     3    23    21    1
     4    21     1    1
     5     1     2    1
     6     2     3   ar
     7     3     4   ar
     8     4     5   ar
     9     5     6   ar
    10     6     7    1
    11     7     8    1
    12     8    12    1
    13    12    13    1
    14    12    14    1
    15    14    15   ar
    16    15    16   ar
    17    16    17   ar
    18    17    18    1
    19    17    19   ar
    20    19    20   ar
    21     8     9    1
    22     9    10    2
    23     9    11    2
    24     9     1    1
    25     6     2   ar
    26    20    14   ar
