@<TRIPOS>MOLECULE
*****
 36 39 0 0 0
SMALL
GASTEIGER

@<TRIPOS>ATOM
      1 C          62.5615   83.6847   13.5668 C.2     1  UNL1        0.0732
      2 C          62.7780   83.9241   15.0317 C.2     1  UNL1        0.1887
      3 O          62.5604   82.9257   16.1298 O.2     1  UNL1       -0.5020
      4 C          63.2502   85.3371   15.2057 C.2     1  UNL1        0.2869
      5 O          63.5879   85.9998   16.5083 O.2     1  UNL1       -0.2662
      6 N          63.3256   85.9711   13.8483 N.am    1  UNL1       -0.2463
      7 C          62.9000   84.9498   12.8354 C.3     1  UNL1        0.1338
      8 H          62.2621   82.0614   15.9249 H       1  UNL1        0.2924
      9 C          63.7519   87.3791   13.5552 C.ar    1  UNL1        0.0548
     10 C          64.5964   88.1280   14.5431 C.ar    1  UNL1        0.0149
     11 C          65.0226   89.5360   14.2500 C.ar    1  UNL1        0.0013
     12 C          64.6044   90.1950   12.9691 C.ar    1  UNL1        0.0006
     13 C          63.7599   89.4461   11.9812 C.ar    1  UNL1        0.0013
     14 C          63.3337   88.0381   12.2743 C.ar    1  UNL1        0.0149
     15 C          65.0306   91.6031   12.6761 C.ar    1  UNL1        0.0070
     16 C          64.7900   92.3490   11.3971 C.ar    1  UNL1        0.0075
     17 C          65.3830   93.7193   11.5411 C.ar    1  UNL1        0.0355
     18 S          65.9901   93.8202   12.9091 S.2     1  UNL1       -0.0859
     19 C          65.7723   92.5123   13.6105 C.ar    1  UNL1        0.0354
     20 C          62.8258   85.1573   11.3517 C.ar    1  UNL1        0.0344
     21 C          63.7714   84.4276   10.4443 C.ar    1  UNL1        0.0007
     22 C          63.6972   84.6350    8.9605 C.ar    1  UNL1       -0.0001
     23 C          62.6775   85.5720    8.3842 C.ar    1  UNL1        0.0031
     24 C          61.7319   86.3016    9.2917 C.ar    1  UNL1        0.0367
     25 C          61.8061   86.0942   10.7754 C.ar    1  UNL1        0.1369
     26 O          60.8604   86.8239   11.6829 O.3     1  UNL1       -0.4696
     27 C          59.9412   87.8693   11.1242 C.3     1  UNL1        0.2468
     28 C          59.9883   89.2711   11.6560 C.2     1  UNL1        0.0940
     29 O          60.1477   89.6469   12.9428 O.co2   1  UNL1       -0.5454
     30 O          59.8505   90.4340   10.7186 O.co2   1  UNL1       -0.5454
     31 C          62.0894   82.4050   12.9429 C.2     1  UNL1        0.1732
     32 O          61.4088   82.1062   11.8159 O.2     1  UNL1       -0.2915
     33 C          61.1002   80.8294   13.9942 C.3     1  UNL1        0.0077
     34 C          62.3689   81.0943   13.6166 C.3     1  UNL1        0.0554
     35 C          63.8236   81.2298   13.2767 C.3     1  UNL1        0.0077
     36 C          62.6485   79.7836   14.2904 C.3     1  UNL1        0.0077
@<TRIPOS>UNITY_ATOM_ATTR
29 1
charge -1
@<TRIPOS>BOND
     1    33    34    1
     2    34    35    1
     3    34    36    1
     4    34    31    1
     5    31    32    2
     6    31     1    1
     7     1     2    2
     8     2     3    1
     9     2     4    1
    10     4     5    2
    11     4     6   am
    12     6     9    1
    13     9    10   ar
    14    10    11   ar
    15    11    12   ar
    16    12    15    1
    17    15    16   ar
    18    16    17   ar
    19    17    18   ar
    20    18    19   ar
    21    12    13   ar
    22    13    14   ar
    23     6     7    1
    24     7    20    1
    25    20    21   ar
    26    21    22   ar
    27    22    23   ar
    28    23    24   ar
    29    24    25   ar
    30    25    26    1
    31    26    27    1
    32    27    28    1
    33    28    29   ar
    34    28    30   ar
    35     7     1    1
    36    25    20   ar
    37    14     9   ar
    38    19    15   ar
    39     3     8    1
@<TRIPOS>MOLECULE
*****
 36 39 0 0 0
SMALL
GASTEIGER

@<TRIPOS>ATOM
      1 C          63.1631   88.9254   12.5644 C.2     1  UNL1        0.0732
      2 C          64.0347   88.5993   13.7409 C.2     1  UNL1        0.1887
      3 O          64.6570   89.5908   14.6788 O.2     1  UNL1       -0.5020
      4 C          64.1746   87.1077   13.8148 C.2     1  UNL1        0.2869
      5 O          64.9614   86.3457   14.8396 O.2     1  UNL1       -0.2662
      6 N          63.3895   86.5119   12.6840 N.am    1  UNL1       -0.2463
      7 C          62.7644   87.6353   11.9112 C.3     1  UNL1        0.1338
      8 H          64.5132   90.5082   14.5537 H       1  UNL1        0.2924
      9 C          63.2535   85.0494   12.3794 C.ar    1  UNL1        0.0548
     10 C          62.6259   84.1293   13.3841 C.ar    1  UNL1        0.0149
     11 C          62.4899   82.6669   13.0796 C.ar    1  UNL1        0.0013
     12 C          62.9815   82.1246   11.7703 C.ar    1  UNL1        0.0006
     13 C          63.6091   83.0447   10.7656 C.ar    1  UNL1        0.0013
     14 C          63.7451   84.5071   11.0702 C.ar    1  UNL1        0.0149
     15 C          62.8455   80.6621   11.4657 C.ar    1  UNL1        0.0070
     16 C          62.5319   79.5806   12.4567 C.ar    1  UNL1        0.0075
     17 C          62.4917   78.2745   11.7203 C.ar    1  UNL1        0.0355
     18 S          62.7805   78.5488   10.2741 S.2     1  UNL1       -0.0859
     19 C          62.9992   80.0244   10.1168 C.ar    1  UNL1        0.0354
     20 C          61.8935   87.4935   10.6982 C.ar    1  UNL1        0.0344
     21 C          62.4137   86.7905    9.4795 C.ar    1  UNL1        0.0007
     22 C          61.5427   86.6487    8.2665 C.ar    1  UNL1       -0.0001
     23 C          60.1517   87.2100    8.2721 C.ar    1  UNL1        0.0031
     24 C          59.6316   87.9130    9.4908 C.ar    1  UNL1        0.0367
     25 C          60.5025   88.0547   10.7038 C.ar    1  UNL1        0.1369
     26 O          59.9823   88.7578   11.9225 O.3     1  UNL1       -0.4696
     27 C          58.5178   89.0567   12.0482 C.3     1  UNL1        0.2468
     28 C          57.7728   88.6501   13.2850 C.2     1  UNL1        0.0940
     29 O          56.4673   88.3177   13.3747 O.co2   1  UNL1       -0.5454
     30 O          58.4867   88.5819   14.6024 O.co2   1  UNL1       -0.5454
     31 C          62.7609   90.3002   12.1193 C.2     1  UNL1        0.1732
     32 O          61.6220   91.0196   12.2097 O.2     1  UNL1       -0.2915
     33 C          64.4199   91.5930   12.4964 C.3     1  UNL1        0.0077
     34 C          63.7467   91.1752   11.4035 C.3     1  UNL1        0.0554
     35 C          63.1141   90.8149   10.0919 C.3     1  UNL1        0.0077
     36 C          64.7326   92.0502   10.6875 C.3     1  UNL1        0.0077
@<TRIPOS>UNITY_ATOM_ATTR
29 1
charge -1
@<TRIPOS>BOND
     1    33    34    1
     2    34    35    1
     3    34    36    1
     4    34    31    1
     5    31    32    2
     6    31     1    1
     7     1     2    2
     8     2     3    1
     9     2     4    1
    10     4     5    2
    11     4     6   am
    12     6     9    1
    13     9    10   ar
    14    10    11   ar
    15    11    12   ar
    16    12    15    1
    17    15    16   ar
    18    16    17   ar
    19    17    18   ar
    20    18    19   ar
    21    12    13   ar
    22    13    14   ar
    23     6     7    1
    24     7    20    1
    25    20    21   ar
    26    21    22   ar
    27    22    23   ar
    28    23    24   ar
    29    24    25   ar
    30    25    26    1
    31    26    27    1
    32    27    28    1
    33    28    29   ar
    34    28    30   ar
    35     7     1    1
    36    25    20   ar
    37    14     9   ar
    38    19    15   ar
    39     3     8    1
@<TRIPOS>MOLECULE
*****
 36 39 0 0 0
SMALL
GASTEIGER

@<TRIPOS>ATOM
      1 C          63.2635   94.2343   -1.2881 C.2     1  UNL1        0.0732
      2 C          63.3765   93.8958   -2.7451 C.2     1  UNL1        0.1887
      3 O          64.6277   93.4770   -3.4585 O.2     1  UNL1       -0.5020
      4 C          62.0185   94.0498   -3.3632 C.2     1  UNL1        0.2869
      5 O          61.6733   93.8118   -4.8034 O.2     1  UNL1       -0.2662
      6 N          61.0663   94.4833   -2.2883 N.am    1  UNL1       -0.2463
      7 C          61.8358   94.5974   -1.0058 C.3     1  UNL1        0.1338
      8 H          65.4347   93.4079   -2.9875 H       1  UNL1        0.2924
      9 C          59.6017   94.7552   -2.4650 C.ar    1  UNL1        0.0548
     10 C          58.5906   93.9187   -1.7383 C.ar    1  UNL1        0.0149
     11 C          57.1261   94.1906   -1.9149 C.ar    1  UNL1        0.0013
     12 C          56.6726   95.2988   -2.8184 C.ar    1  UNL1        0.0006
     13 C          57.6837   96.1352   -3.5451 C.ar    1  UNL1        0.0013
     14 C          59.1482   95.8634   -3.3684 C.ar    1  UNL1        0.0149
     15 C          55.2080   95.5706   -2.9950 C.ar    1  UNL1        0.0070
     16 C          54.5366   95.9902   -4.2691 C.ar    1  UNL1        0.0075
     17 C          53.0714   96.1494   -3.9902 C.ar    1  UNL1        0.0355
     18 S          52.8373   95.8283   -2.5437 S.2     1  UNL1       -0.0859
     19 C          54.1578   95.4706   -1.9287 C.ar    1  UNL1        0.0354
     20 C          61.2759   95.0033    0.3252 C.ar    1  UNL1        0.0344
     21 C          60.9945   96.4487    0.6112 C.ar    1  UNL1        0.0007
     22 C          60.4346   96.8546    1.9423 C.ar    1  UNL1       -0.0001
     23 C          60.1560   95.8152    2.9874 C.ar    1  UNL1        0.0031
     24 C          60.4375   94.3699    2.7013 C.ar    1  UNL1        0.0367
     25 C          60.9974   93.9640    1.3703 C.ar    1  UNL1        0.1369
     26 O          61.2788   92.5186    1.0843 O.3     1  UNL1       -0.4696
     27 C          62.5429   91.8869    1.5869 C.3     1  UNL1        0.2468
     28 C          62.6497   91.4608    3.0212 C.2     1  UNL1        0.0940
     29 O          61.7197   91.6185    3.9869 O.co2   1  UNL1       -0.5454
     30 O          63.8934   90.7798    3.5107 O.co2   1  UNL1       -0.5454
     31 C          64.3820   94.2134   -0.2888 C.2     1  UNL1        0.1732
     32 O          65.1235   93.2325    0.2685 O.2     1  UNL1       -0.2915
     33 C          65.2029   96.1005   -0.8640 C.3     1  UNL1        0.0077
     34 C          64.8849   95.4976    0.3012 C.3     1  UNL1        0.0554
     35 C          64.5906   94.9802    1.6781 C.3     1  UNL1        0.0077
     36 C          65.3877   96.7817    0.8912 C.3     1  UNL1        0.0077
@<TRIPOS>UNITY_ATOM_ATTR
29 1
charge -1
@<TRIPOS>BOND
     1    33    34    1
     2    34    35    1
     3    34    36    1
     4    34    31    1
     5    31    32    2
     6    31     1    1
     7     1     2    2
     8     2     3    1
     9     2     4    1
    10     4     5    2
    11     4     6   am
    12     6     9    1
    13     9    10   ar
    14    10    11   ar
    15    11    12   ar
    16    12    15    1
    17    15    16   ar
    18    16    17   ar
    19    17    18   ar
    20    18    19   ar
    21    12    13   ar
    22    13    14   ar
    23     6     7    1
    24     7    20    1
    25    20    21   ar
    26    21    22   ar
    27    22    23   ar
    28    23    24   ar
    29    24    25   ar
    30    25    26    1
    31    26    27    1
    32    27    28    1
    33    28    29   ar
    34    28    30   ar
    35     7     1    1
    36    25    20   ar
    37    14     9   ar
    38    19    15   ar
    39     3     8    1
@<TRIPOS>MOLECULE
*****
 36 39 0 0 0
SMALL
GASTEIGER

@<TRIPOS>ATOM
      1 C          61.5044   94.3882   -4.2689 C.2     1  UNL1        0.0732
      2 C          61.3639   94.7692   -5.7129 C.2     1  UNL1        0.1887
      3 O          62.4548   94.7421   -6.7421 O.2     1  UNL1       -0.5020
      4 C          59.9410   95.1820   -5.9470 C.2     1  UNL1        0.2869
      5 O          59.3591   95.6402   -7.2514 O.2     1  UNL1       -0.2662
      6 N          59.2021   95.0562   -4.6477 N.am    1  UNL1       -0.2463
      7 C          60.1683   94.5656   -3.6105 C.3     1  UNL1        0.1338
      8 H          63.3182   94.4682   -6.5025 H       1  UNL1        0.2924
      9 C          57.7515   95.3665   -4.4246 C.ar    1  UNL1        0.0548
     10 C          56.6991   94.6280   -5.1974 C.ar    1  UNL1        0.0149
     11 C          55.2487   94.9383   -4.9744 C.ar    1  UNL1        0.0013
     12 C          54.8506   95.9871   -3.9786 C.ar    1  UNL1        0.0006
     13 C          55.9029   96.7255   -3.2058 C.ar    1  UNL1        0.0013
     14 C          57.3534   96.4152   -3.4289 C.ar    1  UNL1        0.0149
     15 C          53.4000   96.2974   -3.7556 C.ar    1  UNL1        0.0070
     16 C          52.3377   96.3537   -4.8131 C.ar    1  UNL1        0.0075
     17 C          51.0383   96.6970   -4.1471 C.ar    1  UNL1        0.0355
     18 S          51.2975   96.8528   -2.6779 S.2     1  UNL1       -0.0859
     19 C          52.7571   96.6058   -2.4359 C.ar    1  UNL1        0.0354
     20 C          59.8538   94.2991   -2.1683 C.ar    1  UNL1        0.0344
     21 C          60.4400   95.1728   -1.0991 C.ar    1  UNL1        0.0007
     22 C          60.1255   94.9063    0.3432 C.ar    1  UNL1       -0.0001
     23 C          59.2248   93.7663    0.7162 C.ar    1  UNL1        0.0031
     24 C          58.6386   92.8927   -0.3530 C.ar    1  UNL1        0.0367
     25 C          58.9531   93.1592   -1.7952 C.ar    1  UNL1        0.1369
     26 O          58.3669   92.2855   -2.8645 O.3     1  UNL1       -0.4696
     27 C          56.9119   91.9234   -2.8231 C.3     1  UNL1        0.2468
     28 C          56.3323   91.0252   -3.8754 C.2     1  UNL1        0.0940
     29 O          55.3685   90.0947   -3.7084 O.co2   1  UNL1       -0.5454
     30 O          56.8255   91.1108   -5.2894 O.co2   1  UNL1       -0.5454
     31 C          62.7605   93.9132   -3.6005 C.2     1  UNL1        0.1732
     32 O          63.4338   92.7431   -3.5925 O.2     1  UNL1       -0.2915
     33 C          63.5175   95.9107   -3.5449 C.3     1  UNL1        0.0077
     34 C          63.5386   94.8438   -2.7181 C.3     1  UNL1        0.0554
     35 C          63.6577   93.7636   -1.6841 C.3     1  UNL1        0.0077
     36 C          64.3166   95.7743   -1.8356 C.3     1  UNL1        0.0077
@<TRIPOS>UNITY_ATOM_ATTR
29 1
charge -1
@<TRIPOS>BOND
     1    33    34    1
     2    34    35    1
     3    34    36    1
     4    34    31    1
     5    31    32    2
     6    31     1    1
     7     1     2    2
     8     2     3    1
     9     2     4    1
    10     4     5    2
    11     4     6   am
    12     6     9    1
    13     9    10   ar
    14    10    11   ar
    15    11    12   ar
    16    12    15    1
    17    15    16   ar
    18    16    17   ar
    19    17    18   ar
    20    18    19   ar
    21    12    13   ar
    22    13    14   ar
    23     6     7    1
    24     7    20    1
    25    20    21   ar
    26    21    22   ar
    27    22    23   ar
    28    23    24   ar
    29    24    25   ar
    30    25    26    1
    31    26    27    1
    32    27    28    1
    33    28    29   ar
    34    28    30   ar
    35     7     1    1
    36    25    20   ar
    37    14     9   ar
    38    19    15   ar
    39     3     8    1
@<TRIPOS>MOLECULE
*****
 36 39 0 0 0
SMALL
GASTEIGER

@<TRIPOS>ATOM
      1 C          63.4973   95.3191   -1.8496 C.2     1  UNL1        0.0732
      2 C          63.6872   95.3003   -3.3375 C.2     1  UNL1        0.1887
      3 O          64.9974   95.1789   -4.0576 O.2     1  UNL1       -0.5020
      4 C          62.3369   95.4243   -3.9787 C.2     1  UNL1        0.2869
      5 O          62.0597   95.4487   -5.4526 O.2     1  UNL1       -0.2662
      6 N          61.3124   95.5197   -2.8872 N.am    1  UNL1       -0.2463
      7 C          62.0296   95.4547   -1.5714 C.3     1  UNL1        0.1338
      8 H          65.7946   95.1057   -3.5707 H       1  UNL1        0.2924
      9 C          59.8308   95.6562   -3.0781 C.ar    1  UNL1        0.0548
     10 C          59.0695   96.7003   -2.3164 C.ar    1  UNL1        0.0149
     11 C          57.5880   96.8368   -2.5072 C.ar    1  UNL1        0.0013
     12 C          56.8678   95.9291   -3.4599 C.ar    1  UNL1        0.0006
     13 C          57.6291   94.8850   -4.2216 C.ar    1  UNL1        0.0013
     14 C          59.1106   94.7486   -4.0307 C.ar    1  UNL1        0.0149
     15 C          55.3862   96.0656   -3.6507 C.ar    1  UNL1        0.0070
     16 C          54.3616   96.1596   -2.5592 C.ar    1  UNL1        0.0075
     17 C          53.0113   96.2842   -3.2004 C.ar    1  UNL1        0.0355
     18 S          53.2014   96.2672   -4.6883 S.2     1  UNL1       -0.0859
     19 C          54.6692   96.1321   -4.9665 C.ar    1  UNL1        0.0354
     20 C          61.3912   95.5147   -0.2153 C.ar    1  UNL1        0.0344
     21 C          61.4063   96.7959    0.5647 C.ar    1  UNL1        0.0007
     22 C          60.7679   96.8559    1.9207 C.ar    1  UNL1       -0.0001
     23 C          60.1143   95.6348    2.4968 C.ar    1  UNL1        0.0031
     24 C          60.0993   94.3536    1.7168 C.ar    1  UNL1        0.0367
     25 C          60.7377   94.2936    0.3607 C.ar    1  UNL1        0.1369
     26 O          60.7226   93.0124   -0.4192 O.3     1  UNL1       -0.4696
     27 C          59.4643   92.2003   -0.5033 C.3     1  UNL1        0.2468
     28 C          58.2030   92.8232   -1.0241 C.2     1  UNL1        0.0940
     29 O          57.5698   93.9091   -0.5319 O.co2   1  UNL1       -0.5454
     30 O          57.5122   92.2327   -2.2175 O.co2   1  UNL1       -0.5454
     31 C          64.5842   95.2197   -0.8207 C.2     1  UNL1        0.1732
     32 O          65.7742   95.8342   -0.6512 O.2     1  UNL1       -0.2915
     33 C          64.2664   93.1472   -0.4084 C.3     1  UNL1        0.0077
     34 C          64.4449   94.2647    0.3276 C.3     1  UNL1        0.0554
     35 C          64.6277   95.3985    1.2926 C.3     1  UNL1        0.0077
     36 C          64.3057   93.3098    1.4760 C.3     1  UNL1        0.0077
@<TRIPOS>UNITY_ATOM_ATTR
29 1
charge -1
@<TRIPOS>BOND
     1    33    34    1
     2    34    35    1
     3    34    36    1
     4    34    31    1
     5    31    32    2
     6    31     1    1
     7     1     2    2
     8     2     3    1
     9     2     4    1
    10     4     5    2
    11     4     6   am
    12     6     9    1
    13     9    10   ar
    14    10    11   ar
    15    11    12   ar
    16    12    15    1
    17    15    16   ar
    18    16    17   ar
    19    17    18   ar
    20    18    19   ar
    21    12    13   ar
    22    13    14   ar
    23     6     7    1
    24     7    20    1
    25    20    21   ar
    26    21    22   ar
    27    22    23   ar
    28    23    24   ar
    29    24    25   ar
    30    25    26    1
    31    26    27    1
    32    27    28    1
    33    28    29   ar
    34    28    30   ar
    35     7     1    1
    36    25    20   ar
    37    14     9   ar
    38    19    15   ar
    39     3     8    1
@<TRIPOS>MOLECULE
*****
 36 39 0 0 0
SMALL
GASTEIGER

@<TRIPOS>ATOM
      1 C          61.5404   95.2889   -2.3591 C.2     1  UNL1        0.0732
      2 C          61.2508   95.2857   -0.8873 C.2     1  UNL1        0.1887
      3 O          62.2660   95.1685    0.2108 O.2     1  UNL1       -0.5020
      4 C          59.7679   95.4203   -0.7063 C.2     1  UNL1        0.2869
      5 O          59.0397   95.4613    0.6044 O.2     1  UNL1       -0.2662
      6 N          59.1409   95.5067   -2.0663 N.am    1  UNL1       -0.2463
      7 C          60.2364   95.4255   -3.0877 C.3     1  UNL1        0.1338
      8 H          63.1757   95.0879    0.0012 H       1  UNL1        0.2924
      9 C          57.6757   95.6493   -2.3542 C.ar    1  UNL1        0.0548
     10 C          57.1982   96.7019   -3.3102 C.ar    1  UNL1        0.0149
     11 C          55.7330   96.8444   -3.5981 C.ar    1  UNL1        0.0013
     12 C          54.7453   95.9344   -2.9300 C.ar    1  UNL1        0.0006
     13 C          55.2229   94.8818   -1.9740 C.ar    1  UNL1        0.0013
     14 C          56.6880   94.7393   -1.6861 C.ar    1  UNL1        0.0149
     15 C          53.2801   96.0770   -3.2179 C.ar    1  UNL1        0.0070
     16 C          52.1664   95.9079   -2.2274 C.ar    1  UNL1        0.0075
     17 C          50.8693   96.1401   -2.9442 C.ar    1  UNL1        0.0355
     18 S          51.1815   96.4526   -4.3777 S.2     1  UNL1       -0.0859
     19 C          52.6714   96.4136   -4.5469 C.ar    1  UNL1        0.0354
     20 C          60.0590   95.4726   -4.5765 C.ar    1  UNL1        0.0344
     21 C          60.6032   96.6301   -5.3603 C.ar    1  UNL1        0.0007
     22 C          60.4259   96.6772   -6.8490 C.ar    1  UNL1       -0.0001
     23 C          59.7044   95.5670   -7.5540 C.ar    1  UNL1        0.0031
     24 C          59.1603   94.4096   -6.7701 C.ar    1  UNL1        0.0367
     25 C          59.3376   94.3625   -5.2814 C.ar    1  UNL1        0.1369
     26 O          58.7934   93.2051   -4.4976 O.3     1  UNL1       -0.4696
     27 C          57.3323   92.8732   -4.5668 C.3     1  UNL1        0.2468
     28 C          56.8715   91.6735   -5.3404 C.2     1  UNL1        0.0940
     29 O          57.4600   91.1334   -6.4288 O.co2   1  UNL1       -0.5454
     30 O          55.6313   90.9414   -4.9208 O.co2   1  UNL1       -0.5454
     31 C          62.8959   95.1755   -2.9912 C.2     1  UNL1        0.1732
     32 O          63.9145   96.0395   -3.1876 O.2     1  UNL1       -0.2915
     33 C          63.2329   93.1377   -2.4436 C.3     1  UNL1        0.0077
     34 C          63.3450   93.8680   -3.5734 C.3     1  UNL1        0.0554
     35 C          63.5256   94.5251   -4.9097 C.3     1  UNL1        0.0077
     36 C          63.7940   92.5606   -4.1556 C.3     1  UNL1        0.0077
@<TRIPOS>UNITY_ATOM_ATTR
29 1
charge -1
@<TRIPOS>BOND
     1    33    34    1
     2    34    35    1
     3    34    36    1
     4    34    31    1
     5    31    32    2
     6    31     1    1
     7     1     2    2
     8     2     3    1
     9     2     4    1
    10     4     5    2
    11     4     6   am
    12     6     9    1
    13     9    10   ar
    14    10    11   ar
    15    11    12   ar
    16    12    15    1
    17    15    16   ar
    18    16    17   ar
    19    17    18   ar
    20    18    19   ar
    21    12    13   ar
    22    13    14   ar
    23     6     7    1
    24     7    20    1
    25    20    21   ar
    26    21    22   ar
    27    22    23   ar
    28    23    24   ar
    29    24    25   ar
    30    25    26    1
    31    26    27    1
    32    27    28    1
    33    28    29   ar
    34    28    30   ar
    35     7     1    1
    36    25    20   ar
    37    14     9   ar
    38    19    15   ar
    39     3     8    1
@<TRIPOS>MOLECULE
*****
 36 39 0 0 0
SMALL
GASTEIGER

@<TRIPOS>ATOM
      1 C          61.5805   95.3563   -3.0210 C.2     1  UNL1        0.0732
      2 C          61.7482   95.8685   -4.4208 C.2     1  UNL1        0.1887
      3 O          62.7920   96.8407   -4.8848 O.2     1  UNL1       -0.5020
      4 C          60.6887   95.2380   -5.2751 C.2     1  UNL1        0.2869
      5 O          60.4871   95.4688   -6.7435 O.2     1  UNL1       -0.2662
      6 N          59.8662   94.3360   -4.4033 N.am    1  UNL1       -0.2463
      7 C          60.4174   94.4091   -3.0102 C.3     1  UNL1        0.1338
      8 H          63.4162   97.1839   -4.2761 H       1  UNL1        0.2924
      9 C          58.6977   93.5065   -4.8468 C.ar    1  UNL1        0.0548
     10 C          57.8355   93.9720   -5.9825 C.ar    1  UNL1        0.0149
     11 C          56.6671   93.1426   -6.4260 C.ar    1  UNL1        0.0013
     12 C          56.3609   91.8476   -5.7337 C.ar    1  UNL1        0.0006
     13 C          57.2230   91.3820   -4.5980 C.ar    1  UNL1        0.0013
     14 C          58.3915   92.2115   -4.1546 C.ar    1  UNL1        0.0149
     15 C          55.1923   91.0181   -6.1772 C.ar    1  UNL1        0.0070
     16 C          54.5811   91.0171   -7.5471 C.ar    1  UNL1        0.0075
     17 C          53.4410   90.0425   -7.5453 C.ar    1  UNL1        0.0355
     18 S          53.3475   89.4410   -6.1743 S.2     1  UNL1       -0.0859
     19 C          54.4299   90.0440   -5.3288 C.ar    1  UNL1        0.0354
     20 C          59.8969   93.6657   -1.8159 C.ar    1  UNL1        0.0344
     21 C          60.6511   92.4847   -1.2804 C.ar    1  UNL1        0.0007
     22 C          60.1306   91.7412   -0.0862 C.ar    1  UNL1       -0.0001
     23 C          58.8560   92.1786    0.5727 C.ar    1  UNL1        0.0031
     24 C          58.1019   93.3595    0.0372 C.ar    1  UNL1        0.0367
     25 C          58.6224   94.1030   -1.1570 C.ar    1  UNL1        0.1369
     26 O          57.8681   95.2839   -1.6925 O.3     1  UNL1       -0.4696
     27 C          56.4349   95.4970   -1.3050 C.3     1  UNL1        0.2468
     28 C          55.3501   94.7143   -1.9837 C.2     1  UNL1        0.0940
     29 O          55.2831   93.3734   -2.1259 O.co2   1  UNL1       -0.5454
     30 O          54.1804   95.4275   -2.5945 O.co2   1  UNL1       -0.5454
     31 C          62.4273   95.7262   -1.8394 C.2     1  UNL1        0.1732
     32 O          62.5863   96.8551   -1.1162 O.2     1  UNL1       -0.2915
     33 C          63.9447   94.3195   -2.3728 C.3     1  UNL1        0.0077
     34 C          63.3462   94.7106   -1.2278 C.3     1  UNL1        0.0554
     35 C          62.7889   95.0237    0.1293 C.3     1  UNL1        0.0077
     36 C          64.2650   93.6950   -0.6160 C.3     1  UNL1        0.0077
@<TRIPOS>UNITY_ATOM_ATTR
29 1
charge -1
@<TRIPOS>BOND
     1    33    34    1
     2    34    35    1
     3    34    36    1
     4    34    31    1
     5    31    32    2
     6    31     1    1
     7     1     2    2
     8     2     3    1
     9     2     4    1
    10     4     5    2
    11     4     6   am
    12     6     9    1
    13     9    10   ar
    14    10    11   ar
    15    11    12   ar
    16    12    15    1
    17    15    16   ar
    18    16    17   ar
    19    17    18   ar
    20    18    19   ar
    21    12    13   ar
    22    13    14   ar
    23     6     7    1
    24     7    20    1
    25    20    21   ar
    26    21    22   ar
    27    22    23   ar
    28    23    24   ar
    29    24    25   ar
    30    25    26    1
    31    26    27    1
    32    27    28    1
    33    28    29   ar
    34    28    30   ar
    35     7     1    1
    36    25    20   ar
    37    14     9   ar
    38    19    15   ar
    39     3     8    1
@<TRIPOS>MOLECULE
*****
 36 39 0 0 0
SMALL
GASTEIGER

@<TRIPOS>ATOM
      1 C          61.3329   95.8898   -0.8917 C.2     1  UNL1        0.0732
      2 C          60.7827   96.2972    0.4430 C.2     1  UNL1        0.1887
      3 O          61.5784   96.5130    1.6961 O.2     1  UNL1       -0.5020
      4 C          59.2971   96.4509    0.3045 C.2     1  UNL1        0.2869
      5 O          58.3463   96.8475    1.3948 O.2     1  UNL1       -0.2662
      6 N          58.9291   96.1385   -1.1157 N.am    1  UNL1       -0.2463
      7 C          60.1874   95.7917   -1.8550 C.3     1  UNL1        0.1338
      8 H          62.5076   96.3927    1.6876 H       1  UNL1        0.2924
      9 C          57.5457   96.1678   -1.6950 C.ar    1  UNL1        0.0548
     10 C          57.3084   96.7902   -3.0389 C.ar    1  UNL1        0.0149
     11 C          55.9251   96.8195   -3.6181 C.ar    1  UNL1        0.0013
     12 C          54.7791   96.2264   -2.8534 C.ar    1  UNL1        0.0006
     13 C          55.0164   95.6040   -1.5094 C.ar    1  UNL1        0.0013
     14 C          56.3997   95.5747   -0.9302 C.ar    1  UNL1        0.0149
     15 C          53.3957   96.2557   -3.4326 C.ar    1  UNL1        0.0070
     16 C          52.1226   95.9776   -2.6896 C.ar    1  UNL1        0.0075
     17 C          50.9827   96.1182   -3.6543 C.ar    1  UNL1        0.0355
     18 S          51.5512   96.4832   -4.9936 S.2     1  UNL1       -0.0859
     19 C          53.0425   96.5682   -4.8566 C.ar    1  UNL1        0.0354
     20 C          60.2832   95.4133   -3.3033 C.ar    1  UNL1        0.0344
     21 C          60.8930   96.3660   -4.2886 C.ar    1  UNL1        0.0007
     22 C          60.9889   95.9876   -5.7369 C.ar    1  UNL1       -0.0001
     23 C          60.4751   94.6565   -6.2000 C.ar    1  UNL1        0.0031
     24 C          59.8654   93.7039   -5.2147 C.ar    1  UNL1        0.0367
     25 C          59.7695   94.0823   -3.7664 C.ar    1  UNL1        0.1369
     26 O          59.1598   93.1296   -2.7811 O.3     1  UNL1       -0.4696
     27 C          57.9050   92.3873   -3.1335 C.3     1  UNL1        0.2468
     28 C          56.9380   91.9948   -2.0560 C.2     1  UNL1        0.0940
     29 O          56.9710   92.3685   -0.7592 O.co2   1  UNL1       -0.5454
     30 O          55.7837   91.0920   -2.3766 O.co2   1  UNL1       -0.5454
     31 C          62.7755   95.6266   -1.2075 C.2     1  UNL1        0.1732
     32 O          63.5823   95.9449   -2.2421 O.2     1  UNL1       -0.2915
     33 C          64.4225   95.8700    0.1320 C.3     1  UNL1        0.0077
     34 C          63.6242   94.8491   -0.2456 C.3     1  UNL1        0.0554
     35 C          62.8346   93.6105   -0.5503 C.3     1  UNL1        0.0077
     36 C          64.4727   94.0714    0.7163 C.3     1  UNL1        0.0077
@<TRIPOS>UNITY_ATOM_ATTR
29 1
charge -1
@<TRIPOS>BOND
     1    33    34    1
     2    34    35    1
     3    34    36    1
     4    34    31    1
     5    31    32    2
     6    31     1    1
     7     1     2    2
     8     2     3    1
     9     2     4    1
    10     4     5    2
    11     4     6   am
    12     6     9    1
    13     9    10   ar
    14    10    11   ar
    15    11    12   ar
    16    12    15    1
    17    15    16   ar
    18    16    17   ar
    19    17    18   ar
    20    18    19   ar
    21    12    13   ar
    22    13    14   ar
    23     6     7    1
    24     7    20    1
    25    20    21   ar
    26    21    22   ar
    27    22    23   ar
    28    23    24   ar
    29    24    25   ar
    30    25    26    1
    31    26    27    1
    32    27    28    1
    33    28    29   ar
    34    28    30   ar
    35     7     1    1
    36    25    20   ar
    37    14     9   ar
    38    19    15   ar
    39     3     8    1
@<TRIPOS>MOLECULE
*****
 36 39 0 0 0
SMALL
GASTEIGER

@<TRIPOS>ATOM
      1 C          63.5963   95.4521   -1.1944 C.2     1  UNL1        0.0732
      2 C          64.1844   96.0885   -2.4189 C.2     1  UNL1        0.1887
      3 O          65.5033   96.7987   -2.4966 O.2     1  UNL1       -0.5020
      4 C          63.2218   95.8900   -3.5521 C.2     1  UNL1        0.2869
      5 O          63.4092   96.3668   -4.9619 O.2     1  UNL1       -0.2662
      6 N          62.0389   95.1309   -3.0279 N.am    1  UNL1       -0.2463
      7 C          62.2704   94.8603   -1.5708 C.3     1  UNL1        0.1338
      8 H          66.0405   96.8741   -1.7326 H       1  UNL1        0.2924
      9 C          60.8358   94.7154   -3.8216 C.ar    1  UNL1        0.0548
     10 C          60.1313   93.4311   -3.4989 C.ar    1  UNL1        0.0149
     11 C          58.9283   93.0157   -4.2925 C.ar    1  UNL1        0.0013
     12 C          58.4296   93.8846   -5.4090 C.ar    1  UNL1        0.0006
     13 C          59.1340   95.1689   -5.7317 C.ar    1  UNL1        0.0013
     14 C          60.3371   95.5843   -4.9380 C.ar    1  UNL1        0.0149
     15 C          57.2265   93.4691   -6.2026 C.ar    1  UNL1        0.0070
     16 C          56.8226   92.0595   -6.5189 C.ar    1  UNL1        0.0075
     17 C          55.5626   92.1094   -7.3311 C.ar    1  UNL1        0.0355
     18 S          55.1876   93.5499   -7.5168 S.2     1  UNL1       -0.0859
     19 C          56.2159   94.3902   -6.8194 C.ar    1  UNL1        0.0354
     20 C          61.3395   94.1268   -0.6515 C.ar    1  UNL1        0.0344
     21 C          61.5696   92.6747   -0.3536 C.ar    1  UNL1        0.0007
     22 C          60.6386   91.9411    0.5658 C.ar    1  UNL1       -0.0001
     23 C          59.4776   92.6595    1.1872 C.ar    1  UNL1        0.0031
     24 C          59.2476   94.1114    0.8892 C.ar    1  UNL1        0.0367
     25 C          60.1785   94.8450   -0.0301 C.ar    1  UNL1        0.1369
     26 O          59.9485   96.2971   -0.3281 O.3     1  UNL1       -0.4696
     27 C          58.5554   96.8530   -0.3189 C.3     1  UNL1        0.2468
     28 C          57.5166   96.2891   -1.2425 C.2     1  UNL1        0.0940
     29 O          57.7048   95.3673   -2.2107 O.co2   1  UNL1       -0.5454
     30 O          56.0927   96.7497   -1.1405 O.co2   1  UNL1       -0.5454
     31 C          64.2241   95.4142    0.1674 C.2     1  UNL1        0.1732
     32 O          64.9491   96.2939    0.8907 O.2     1  UNL1       -0.2915
     33 C          63.1846   94.6840    1.8856 C.3     1  UNL1        0.0077
     34 C          64.0932   94.1869    1.0197 C.3     1  UNL1        0.0554
     35 C          65.0943   93.4797    0.1550 C.3     1  UNL1        0.0077
     36 C          63.9624   92.9595    1.8720 C.3     1  UNL1        0.0077
@<TRIPOS>UNITY_ATOM_ATTR
29 1
charge -1
@<TRIPOS>BOND
     1    33    34    1
     2    34    35    1
     3    34    36    1
     4    34    31    1
     5    31    32    2
     6    31     1    1
     7     1     2    2
     8     2     3    1
     9     2     4    1
    10     4     5    2
    11     4     6   am
    12     6     9    1
    13     9    10   ar
    14    10    11   ar
    15    11    12   ar
    16    12    15    1
    17    15    16   ar
    18    16    17   ar
    19    17    18   ar
    20    18    19   ar
    21    12    13   ar
    22    13    14   ar
    23     6     7    1
    24     7    20    1
    25    20    21   ar
    26    21    22   ar
    27    22    23   ar
    28    23    24   ar
    29    24    25   ar
    30    25    26    1
    31    26    27    1
    32    27    28    1
    33    28    29   ar
    34    28    30   ar
    35     7     1    1
    36    25    20   ar
    37    14     9   ar
    38    19    15   ar
    39     3     8    1
