@<TRIPOS>MOLECULE
*****
 56 58 0 0 0
SMALL
GASTEIGER

@<TRIPOS>ATOM
      1 C          62.5736   83.3066   12.0859 C.3     1  UNL1        0.1953
      2 O          62.4824   84.0658   10.7954 O.3     1  UNL1       -0.4497
      3 C          62.4626   85.3101    9.9580 C.2     1  UNL1        0.3188
      4 O          62.2936   84.7739    8.5673 O.2     1  UNL1       -0.2500
      5 C          62.5180   86.7931    9.7395 C.3     1  UNL1        0.1263
      6 C          62.3723   86.5760    8.4150 C.3     1  UNL1        0.0142
      7 C          62.6376   88.2210   10.1831 C.3     1  UNL1        0.1306
      8 C          62.7977   89.3110   11.2012 C.3     1  UNL1        0.0575
      9 C          62.7779   90.5553   10.3637 C.3     1  UNL1        0.0051
     10 C          62.9668   89.8472   12.5918 C.3     1  UNL1        0.1447
     11 C          63.1111   89.7235   14.0797 C.3     1  UNL1        0.1183
     12 C          63.1419   91.1583   13.6435 C.3     1  UNL1        0.0321
     13 C          63.2023   88.9642   15.3701 C.3     1  UNL1        0.0370
     14 C          63.2221   87.7199   16.2075 C.3     1  UNL1        0.0601
     15 C          63.3911   88.2561   17.5982 C.3     1  UNL1        0.0078
     16 C          63.1668   86.2369   16.4261 C.2     1  UNL1        0.1523
     17 O          63.3111   86.1132   17.9140 O.2     1  UNL1       -0.2960
     18 C          63.0471   84.8090   15.9824 C.3     1  UNL1        0.0869
     19 C          63.1383   84.0498   17.2729 C.3     1  UNL1        0.0104
     20 C          62.8870   83.7190   14.9644 C.3     1  UNL1        0.1451
     21 O          62.9068   82.4747   15.8018 O.3     1  UNL1       -0.3815
     22 C          62.7180   83.1828   13.5738 C.3     1  UNL1        0.1497
     23 C          62.7627   82.0767   14.5859 C.3     1  UNL1        0.0356
     24 O          62.5817   81.8384   12.9227 O.3     1  UNL1       -0.3808
     25 H          63.0140   82.7150   16.7355 H       1  UNL1        0.2105
     26 H          62.6143   81.1458   13.6010 H       1  UNL1        0.2105
     27 C          63.2985   81.3715   10.5110 C.3     1  UNL1        0.0039
     28 C          62.4540   81.8787   11.6422 C.3     1  UNL1        0.0462
     29 O          63.2780   90.6481   15.2489 O.3     1  UNL1       -0.3535
     30 C          63.5324   90.5528   15.9984 C.3     1  UNL1        0.1740
     31 O          62.5464   88.9803    8.8927 O.3     1  UNL1       -0.3323
     32 C          61.2484   89.0313    8.1426 C.3     1  UNL1        0.2375
     33 C          61.0079   90.1140    7.1328 C.3     1  UNL1        0.0910
     34 C          59.7099   90.1651    6.3827 C.3     1  UNL1        0.1246
     35 C          58.6515   90.6306    5.4271 C.3     1  UNL1        0.0324
     36 C          58.6524   89.1333    6.6425 C.3     1  UNL1        0.1623
     37 O          57.3545   89.1845    5.8924 O.3     1  UNL1       -0.3796
     38 C          58.8930   88.0507    7.6524 C.3     1  UNL1        0.1468
     39 C          57.8356   87.0190    7.9122 C.3     1  UNL1        0.0348
     40 O          60.1910   87.9996    8.4024 O.3     1  UNL1       -0.3304
     41 H          57.3623   89.9398    5.2838 H       1  UNL1        0.2105
     42 O          60.3997   91.3584    5.7910 O.3     1  UNL1       -0.3532
     43 C          59.8335   92.0240    4.5719 C.3     1  UNL1        0.1740
     44 O          63.0221   91.3301   12.3733 O.3     1  UNL1       -0.3287
     45 C          64.3083   92.0722   12.5863 C.3     1  UNL1        0.2643
     46 O          64.9216   92.1325   13.9538 O.3     1  UNL1       -0.3311
     47 C          66.2077   92.8745   14.1668 C.3     1  UNL1        0.1194
     48 C          66.8212   92.9349   15.5344 C.3     1  UNL1        0.0322
     49 C          66.8804   93.5561   13.0123 C.3     1  UNL1        0.0482
     50 C          66.2670   93.4958   11.6448 C.3     1  UNL1        0.0921
     51 C          64.9810   92.7538   11.4317 C.3     1  UNL1        0.1815
     52 O          64.3675   92.6934   10.0643 O.3     1  UNL1       -0.3783
     53 H          63.5458   92.1792   10.1009 H       1  UNL1        0.2106
     54 N          66.9398   94.1774   10.4903 N.3     1  UNL1       -0.2692
     55 C          66.7953   95.6590   10.3065 C.3     1  UNL1        0.0897
     56 C          67.7570   93.3774    9.5197 C.3     1  UNL1        0.0897
@<TRIPOS>BOND
     1    27    28    1
     2     1    28    1
     3     1     2    1
     4     2     3    1
     5     3     4    2
     6     3     5    1
     7     5     6    1
     8     5     7    1
     9     7    31    1
    10    32    31    1
    11    32    33    1
    12    33    34    1
    13    34    35    1
    14    34    42    1
    15    42    43    1
    16    34    36    1
    17    36    37    1
    18    36    38    1
    19    38    39    1
    20    38    40    1
    21     7     8    1
    22     8     9    1
    23     8    10    1
    24    10    44    1
    25    45    44    1
    26    45    46    1
    27    46    47    1
    28    47    48    1
    29    47    49    1
    30    49    50    1
    31    50    54    1
    32    54    55    1
    33    54    56    1
    34    50    51    1
    35    51    52    1
    36    10    11    1
    37    11    12    1
    38    11    29    1
    39    29    30    1
    40    11    13    1
    41    13    14    1
    42    14    15    1
    43    14    16    1
    44    16    17    2
    45    16    18    1
    46    18    19    1
    47    18    20    1
    48    20    21    1
    49    20    22    1
    50    22    23    1
    51    22    24    1
    52    22     1    1
    53    40    32    1
    54    51    45    1
    55    37    41    1
    56    52    53    1
    57    21    25    1
    58    24    26    1
@<TRIPOS>MOLECULE
*****
 56 58 0 0 0
SMALL
GASTEIGER

@<TRIPOS>ATOM
      1 C          62.5305   83.4286   11.9559 C.3     1  UNL1        0.1953
      2 O          62.4994   84.2210   10.6826 O.3     1  UNL1       -0.4497
      3 C          62.5319   85.4856    9.8768 C.2     1  UNL1        0.3188
      4 O          62.4035   84.9871    8.4679 O.2     1  UNL1       -0.2500
      5 C          62.6216   86.9723    9.6978 C.3     1  UNL1        0.1263
      6 C          62.5198   86.7906    8.3640 C.3     1  UNL1        0.0142
      7 C          62.7506   88.3863   10.1814 C.3     1  UNL1        0.1306
      8 C          62.8936   89.4478   11.2317 C.3     1  UNL1        0.0575
      9 C          62.9260   90.7125   10.4257 C.3     1  UNL1        0.0051
     10 C          63.0220   89.9463   12.6405 C.3     1  UNL1        0.1447
     11 C          63.1105   89.7833   14.1290 C.3     1  UNL1        0.1183
     12 C          63.1826   91.2276   13.7306 C.3     1  UNL1        0.0321
     13 C          63.1416   88.9910   15.4023 C.3     1  UNL1        0.0370
     14 C          63.1091   87.7263   16.2081 C.3     1  UNL1        0.0601
     15 C          63.2376   88.2249   17.6170 C.3     1  UNL1        0.0078
     16 C          63.0195   86.2397   16.3871 C.2     1  UNL1        0.1523
     17 O          63.1080   86.0767   17.8756 O.2     1  UNL1       -0.2960
     18 C          62.8904   84.8256   15.9035 C.3     1  UNL1        0.0869
     19 C          62.9215   84.0333   17.1768 C.3     1  UNL1        0.0104
     20 C          62.7475   83.7642   14.8532 C.3     1  UNL1        0.1451
     21 O          62.7150   82.4995   15.6592 O.3     1  UNL1       -0.3815
     22 C          62.6191   83.2656   13.4444 C.3     1  UNL1        0.1497
     23 C          62.6077   82.1343   14.4292 C.3     1  UNL1        0.0356
     24 O          62.4823   81.9405   12.7551 O.3     1  UNL1       -0.3808
     25 H          62.7929   82.7147   16.6018 H       1  UNL1        0.2105
     26 H          62.4781   81.2309   13.4165 H       1  UNL1        0.2105
     27 C          63.4291   81.4438   10.5406 C.3     1  UNL1        0.0039
     28 C          62.4015   82.0146   11.4724 C.3     1  UNL1        0.0462
     29 O          63.2517   90.6756   15.3264 O.3     1  UNL1       -0.3535
     30 C          63.5855   90.5892   16.0452 C.3     1  UNL1        0.1740
     31 O          62.7195   89.1787    8.9081 O.3     1  UNL1       -0.3323
     32 C          61.4415   89.3022    8.1327 C.3     1  UNL1        0.2375
     33 C          60.3239   88.3299    8.3691 C.3     1  UNL1        0.0910
     34 C          59.0458   88.4533    7.5937 C.3     1  UNL1        0.1246
     35 C          57.6558   88.1610    7.1116 C.3     1  UNL1        0.0324
     36 C          58.8853   89.5491    6.5819 C.3     1  UNL1        0.1623
     37 O          57.6072   89.6724    5.8066 O.3     1  UNL1       -0.3796
     38 C          60.0028   90.5212    6.3455 C.3     1  UNL1        0.1468
     39 C          59.8422   91.6169    5.3337 C.3     1  UNL1        0.0348
     40 O          61.2809   90.3978    7.1208 O.3     1  UNL1       -0.3304
     41 H          56.9948   88.9711    6.0788 H       1  UNL1        0.2105
     42 O          58.7236   87.2562    8.4381 O.3     1  UNL1       -0.3532
     43 C          59.2620   85.9073    8.0633 C.3     1  UNL1        0.1740
     44 O          63.1116   91.4329   12.4616 O.3     1  UNL1       -0.3287
     45 C          64.4244   92.1334   12.6517 C.3     1  UNL1        0.2643
     46 O          65.0679   92.1660   14.0062 O.3     1  UNL1       -0.3311
     47 C          66.3806   92.8665   14.1962 C.3     1  UNL1        0.1194
     48 C          67.0241   92.8991   15.5509 C.3     1  UNL1        0.0322
     49 C          67.0498   93.5343   13.0317 C.3     1  UNL1        0.0482
     50 C          66.4063   93.5017   11.6772 C.3     1  UNL1        0.0921
     51 C          65.0937   92.8012   11.4871 C.3     1  UNL1        0.1815
     52 O          64.4501   92.7685   10.1325 O.3     1  UNL1       -0.3783
     53 H          63.6138   92.2798   10.1836 H       1  UNL1        0.2106
     54 N          67.0756   94.1695   10.5127 N.3     1  UNL1       -0.2692
     55 C          67.9334   93.3674    9.5795 C.3     1  UNL1        0.0897
     56 C          66.8871   95.6395   10.2813 C.3     1  UNL1        0.0897
@<TRIPOS>BOND
     1    27    28    1
     2     1    28    1
     3     1     2    1
     4     2     3    1
     5     3     4    2
     6     3     5    1
     7     5     6    1
     8     5     7    1
     9     7    31    1
    10    32    31    1
    11    32    33    1
    12    33    34    1
    13    34    35    1
    14    34    42    1
    15    42    43    1
    16    34    36    1
    17    36    37    1
    18    36    38    1
    19    38    39    1
    20    38    40    1
    21     7     8    1
    22     8     9    1
    23     8    10    1
    24    10    44    1
    25    45    44    1
    26    45    46    1
    27    46    47    1
    28    47    48    1
    29    47    49    1
    30    49    50    1
    31    50    54    1
    32    54    55    1
    33    54    56    1
    34    50    51    1
    35    51    52    1
    36    10    11    1
    37    11    12    1
    38    11    29    1
    39    29    30    1
    40    11    13    1
    41    13    14    1
    42    14    15    1
    43    14    16    1
    44    16    17    2
    45    16    18    1
    46    18    19    1
    47    18    20    1
    48    20    21    1
    49    20    22    1
    50    22    23    1
    51    22    24    1
    52    22     1    1
    53    40    32    1
    54    51    45    1
    55    37    41    1
    56    52    53    1
    57    21    25    1
    58    24    26    1
@<TRIPOS>MOLECULE
*****
 56 58 0 0 0
SMALL
GASTEIGER

@<TRIPOS>ATOM
      1 C          63.4227   86.7096   16.5428 C.3     1  UNL1        0.1953
      2 O          63.4822   88.1740   16.2235 O.3     1  UNL1       -0.4497
      3 C          63.4288   89.3608   15.3079 C.2     1  UNL1        0.3188
      4 O          63.6589   90.5128   16.2406 O.2     1  UNL1       -0.2500
      5 C          63.2728   90.0350   13.9770 C.3     1  UNL1        0.1263
      6 C          63.4561   91.2245   14.5886 C.3     1  UNL1        0.0142
      7 C          63.0454   90.0630   12.4946 C.3     1  UNL1        0.1306
      8 C          62.7914   89.4392   11.1542 C.3     1  UNL1        0.0575
      9 C          62.7379   90.6261   10.2385 C.3     1  UNL1        0.0051
     10 C          62.5612   88.2874   10.2215 C.3     1  UNL1        0.1447
     11 C          62.4004   86.8354    9.8809 C.3     1  UNL1        0.1183
     12 C          62.2761   87.7011    8.6623 C.3     1  UNL1        0.0321
     13 C          62.3408   85.3709   10.2002 C.3     1  UNL1        0.0370
     14 C          62.3943   84.1842   11.1159 C.3     1  UNL1        0.0601
     15 C          62.1641   83.0322   10.1831 C.3     1  UNL1        0.0078
     16 C          62.5502   83.5099   12.4468 C.2     1  UNL1        0.1523
     17 O          62.3894   82.0579   12.1063 O.2     1  UNL1       -0.2960
     18 C          62.7777   83.4819   13.9292 C.3     1  UNL1        0.0869
     19 C          62.7181   82.0175   14.2484 C.3     1  UNL1        0.0104
     20 C          63.0317   84.1057   15.2695 C.3     1  UNL1        0.1451
     21 O          63.0851   82.9188   16.1852 O.3     1  UNL1       -0.3815
     22 C          63.2618   85.2576   16.2023 C.3     1  UNL1        0.1497
     23 C          63.2777   83.9483   16.9340 C.3     1  UNL1        0.0356
     24 O          63.5036   85.4529   17.6697 O.3     1  UNL1       -0.3808
     25 H          62.9453   82.1078   15.6718 H       1  UNL1        0.2105
     26 H          63.5083   84.5907   18.1142 H       1  UNL1        0.2105
     27 C          62.5291   87.0199   18.9625 C.3     1  UNL1        0.0039
     28 C          63.6501   86.6816   18.0252 C.3     1  UNL1        0.0462
     29 O          62.1488   86.0159    8.6501 O.3     1  UNL1       -0.3535
     30 C          62.5735   85.4726    8.2501 C.3     1  UNL1        0.1740
     31 O          63.1049   91.5275   12.1753 O.3     1  UNL1       -0.3323
     32 C          64.3974   92.1464   11.7321 C.3     1  UNL1        0.2375
     33 C          64.3846   93.3892   10.8923 C.3     1  UNL1        0.0910
     34 C          65.6770   94.0083   10.4491 C.3     1  UNL1        0.1246
     35 C          66.6312   94.9585    9.7884 C.3     1  UNL1        0.0324
     36 C          66.9823   93.3844   10.8457 C.3     1  UNL1        0.1623
     37 O          68.2746   94.0035   10.4024 O.3     1  UNL1       -0.3796
     38 C          66.9950   92.1416   11.6855 C.3     1  UNL1        0.1468
     39 C          68.3003   91.5178   12.0820 C.3     1  UNL1        0.0348
     40 O          65.7026   91.5227   12.1287 O.3     1  UNL1       -0.3304
     41 H          68.0892   94.7939    9.8717 H       1  UNL1        0.2105
     42 O          64.7032   94.9621    9.8230 O.3     1  UNL1       -0.3532
     43 C          64.9674   96.4380    9.8638 C.3     1  UNL1        0.1740
     44 O          62.4053   88.9615    8.8907 O.3     1  UNL1       -0.3287
     45 C          61.1086   88.8562    8.1438 C.3     1  UNL1        0.2643
     46 O          60.1896   87.6979    8.3964 O.3     1  UNL1       -0.3311
     47 C          58.8930   87.5926    7.6496 C.3     1  UNL1        0.1194
     48 C          57.9740   86.4343    7.9022 C.3     1  UNL1        0.0322
     49 C          58.5155   88.6455    6.6503 C.3     1  UNL1        0.0482
     50 C          59.4345   89.8038    6.3977 C.3     1  UNL1        0.0921
     51 C          60.7311   89.9092    7.1444 C.3     1  UNL1        0.1815
     52 O          61.6501   91.0674    6.8919 O.3     1  UNL1       -0.3783
     53 H          62.4375   90.9835    7.4521 H       1  UNL1        0.2106
     54 N          59.0568   90.8567    5.3983 N.3     1  UNL1       -0.2692
     55 C          57.6176   91.2397    5.2199 C.3     1  UNL1        0.0897
     56 C          60.1185   91.5267    4.5773 C.3     1  UNL1        0.0897
@<TRIPOS>BOND
     1    27    28    1
     2     1    28    1
     3     1     2    1
     4     2     3    1
     5     3     4    2
     6     3     5    1
     7     5     6    1
     8     5     7    1
     9     7    31    1
    10    32    31    1
    11    32    33    1
    12    33    34    1
    13    34    35    1
    14    34    42    1
    15    42    43    1
    16    34    36    1
    17    36    37    1
    18    36    38    1
    19    38    39    1
    20    38    40    1
    21     7     8    1
    22     8     9    1
    23     8    10    1
    24    10    44    1
    25    45    44    1
    26    45    46    1
    27    46    47    1
    28    47    48    1
    29    47    49    1
    30    49    50    1
    31    50    54    1
    32    54    55    1
    33    54    56    1
    34    50    51    1
    35    51    52    1
    36    10    11    1
    37    11    12    1
    38    11    29    1
    39    29    30    1
    40    11    13    1
    41    13    14    1
    42    14    15    1
    43    14    16    1
    44    16    17    2
    45    16    18    1
    46    18    19    1
    47    18    20    1
    48    20    21    1
    49    20    22    1
    50    22    23    1
    51    22    24    1
    52    22     1    1
    53    40    32    1
    54    51    45    1
    55    37    41    1
    56    52    53    1
    57    21    25    1
    58    24    26    1
@<TRIPOS>MOLECULE
*****
 56 58 0 0 0
SMALL
GASTEIGER

@<TRIPOS>ATOM
      1 C          62.5779   83.4316   12.1061 C.3     1  UNL1        0.1953
      2 O          62.5043   84.2080   10.8248 O.3     1  UNL1       -0.4497
      3 C          62.4945   85.4635   10.0041 C.2     1  UNL1        0.3188
      4 O          62.3469   84.9459    8.6040 O.2     1  UNL1       -0.2500
      5 C          62.5503   86.9494    9.8064 C.3     1  UNL1        0.1263
      6 C          62.4245   86.7500    8.4771 C.3     1  UNL1        0.0142
      7 C          62.6608   88.3714   10.2710 C.3     1  UNL1        0.1306
      8 C          62.8040   89.4478   11.3059 C.3     1  UNL1        0.0575
      9 C          62.7942   90.7033   10.4851 C.3     1  UNL1        0.0051
     10 C          62.9516   89.9654   12.7059 C.3     1  UNL1        0.1447
     11 C          63.0744   89.8218   14.1940 C.3     1  UNL1        0.1183
     12 C          63.1089   91.2625   13.7777 C.3     1  UNL1        0.0321
     13 C          63.1479   89.0454   15.4753 C.3     1  UNL1        0.0370
     14 C          63.1578   87.7899   16.2960 C.3     1  UNL1        0.0601
     15 C          63.3054   88.3075   17.6961 C.3     1  UNL1        0.0078
     16 C          63.1019   86.3040   16.4937 C.2     1  UNL1        0.1523
     17 O          63.2247   86.1604   17.9818 O.2     1  UNL1       -0.2960
     18 C          62.9914   84.8820   16.0291 C.3     1  UNL1        0.0869
     19 C          63.0650   84.1056   17.3104 C.3     1  UNL1        0.0104
     20 C          62.8482   83.8056   14.9942 C.3     1  UNL1        0.1451
     21 O          62.8580   82.5501   15.8150 O.3     1  UNL1       -0.3815
     22 C          62.7006   83.2880   13.5942 C.3     1  UNL1        0.1497
     23 C          62.7326   82.1684   14.5918 C.3     1  UNL1        0.0356
     24 O          62.5764   81.9523   12.9231 O.3     1  UNL1       -0.3808
     25 H          62.9511   82.7780   16.7533 H       1  UNL1        0.2105
     26 H          62.6002   81.2507   13.5924 H       1  UNL1        0.2105
     27 C          63.3355   81.5168   10.5220 C.3     1  UNL1        0.0039
     28 C          62.4674   82.0096   11.6415 C.3     1  UNL1        0.0462
     29 O          63.2224   90.7308   15.3779 O.3     1  UNL1       -0.3535
     30 C          63.5609   90.6547   16.0956 C.3     1  UNL1        0.1740
     31 O          62.5872   89.1479    8.9897 O.3     1  UNL1       -0.3323
     32 C          61.3158   89.1629    8.1939 C.3     1  UNL1        0.2375
     33 C          61.0947   90.2208    7.1536 C.3     1  UNL1        0.0910
     34 C          59.8233   90.2359    6.3578 C.3     1  UNL1        0.1246
     35 C          58.7923   90.6649    5.3562 C.3     1  UNL1        0.0324
     36 C          58.7730   89.1932    6.6022 C.3     1  UNL1        0.1623
     37 O          57.5017   89.2084    5.8064 O.3     1  UNL1       -0.3796
     38 C          58.9942   88.1354    7.6425 C.3     1  UNL1        0.1468
     39 C          57.9439   87.0927    7.8869 C.3     1  UNL1        0.0348
     40 O          60.2655   88.1202    8.4383 O.3     1  UNL1       -0.3304
     41 H          57.5196   89.9510    5.1826 H       1  UNL1        0.2105
     42 O          60.5155   91.4276    5.7655 O.3     1  UNL1       -0.3532
     43 C          59.9454   92.0996    4.5518 C.3     1  UNL1        0.1740
     44 O          63.0075   91.4513   12.5083 O.3     1  UNL1       -0.3287
     45 C          64.3047   92.1114   12.1456 C.3     1  UNL1        0.2643
     46 O          64.3494   93.1169   11.0334 O.3     1  UNL1       -0.3311
     47 C          65.6466   93.7770   10.6709 C.3     1  UNL1        0.1194
     48 C          65.6913   94.7825    9.5586 C.3     1  UNL1        0.0322
     49 C          66.8991   93.4317   11.4204 C.3     1  UNL1        0.0482
     50 C          66.8544   92.4262   12.5327 C.3     1  UNL1        0.0921
     51 C          65.5573   91.7660   12.8953 C.3     1  UNL1        0.1815
     52 O          65.5125   90.7606   14.0075 O.3     1  UNL1       -0.3783
     53 H          64.6054   90.4331   14.1110 H       1  UNL1        0.2106
     54 N          68.1070   92.0809   13.2823 N.3     1  UNL1       -0.2692
     55 C          69.2296   91.3745   12.5818 C.3     1  UNL1        0.0897
     56 C          68.2369   92.4419   14.7323 C.3     1  UNL1        0.0897
@<TRIPOS>BOND
     1    27    28    1
     2     1    28    1
     3     1     2    1
     4     2     3    1
     5     3     4    2
     6     3     5    1
     7     5     6    1
     8     5     7    1
     9     7    31    1
    10    32    31    1
    11    32    33    1
    12    33    34    1
    13    34    35    1
    14    34    42    1
    15    42    43    1
    16    34    36    1
    17    36    37    1
    18    36    38    1
    19    38    39    1
    20    38    40    1
    21     7     8    1
    22     8     9    1
    23     8    10    1
    24    10    44    1
    25    45    44    1
    26    45    46    1
    27    46    47    1
    28    47    48    1
    29    47    49    1
    30    49    50    1
    31    50    54    1
    32    54    55    1
    33    54    56    1
    34    50    51    1
    35    51    52    1
    36    10    11    1
    37    11    12    1
    38    11    29    1
    39    29    30    1
    40    11    13    1
    41    13    14    1
    42    14    15    1
    43    14    16    1
    44    16    17    2
    45    16    18    1
    46    18    19    1
    47    18    20    1
    48    20    21    1
    49    20    22    1
    50    22    23    1
    51    22    24    1
    52    22     1    1
    53    40    32    1
    54    51    45    1
    55    37    41    1
    56    52    53    1
    57    21    25    1
    58    24    26    1
@<TRIPOS>MOLECULE
*****
 56 58 0 0 0
SMALL
GASTEIGER

@<TRIPOS>ATOM
      1 C          63.3277   86.4240   16.5348 C.3     1  UNL1        0.1953
      2 O          63.3402   87.8987   16.2610 O.3     1  UNL1       -0.4497
      3 C          63.2583   89.1106   15.3810 C.2     1  UNL1        0.3188
      4 O          63.4341   90.2406   16.3516 O.2     1  UNL1       -0.2500
      5 C          63.0982   89.8197   14.0688 C.3     1  UNL1        0.1263
      6 C          63.2304   90.9954   14.7189 C.3     1  UNL1        0.0142
      7 C          62.8915   89.8854   12.5846 C.3     1  UNL1        0.1306
      8 C          62.6792   89.2947   11.2221 C.3     1  UNL1        0.0575
      9 C          62.5973   90.5067   10.3421 C.3     1  UNL1        0.0051
     10 C          62.5034   88.1648   10.2514 C.3     1  UNL1        0.1447
     11 C          62.3988   86.7193    9.8647 C.3     1  UNL1        0.1183
     12 C          62.2619   87.6173    8.6710 C.3     1  UNL1        0.0321
     13 C          62.3863   85.2445   10.1385 C.3     1  UNL1        0.0370
     14 C          62.4682   84.0327   11.0185 C.3     1  UNL1        0.0601
     15 C          62.2924   82.9026   10.0479 C.3     1  UNL1        0.0078
     16 C          62.6283   83.3236   12.3307 C.2     1  UNL1        0.1523
     17 O          62.5238   81.8781   11.9439 O.2     1  UNL1       -0.2960
     18 C          62.8350   83.2578   13.8149 C.3     1  UNL1        0.0869
     19 C          62.8225   81.7831   14.0887 C.3     1  UNL1        0.0104
     20 C          63.0473   83.8485   15.1774 C.3     1  UNL1        0.1451
     21 O          63.1292   82.6366   16.0574 O.3     1  UNL1       -0.3815
     22 C          63.2231   84.9784   16.1480 C.3     1  UNL1        0.1497
     23 C          63.2744   83.6486   16.8400 C.3     1  UNL1        0.0356
     24 O          63.4364   85.1367   17.6243 O.3     1  UNL1       -0.3808
     25 H          63.0255   81.8374   15.5176 H       1  UNL1        0.2105
     26 H          63.4650   84.2620   18.0425 H       1  UNL1        0.2105
     27 C          62.6090   87.0984   18.9387 C.3     1  UNL1        0.0039
     28 C          63.5343   86.3582   18.0191 C.3     1  UNL1        0.0462
     29 O          62.1942   85.9299    8.6057 O.3     1  UNL1       -0.3535
     30 C          62.6541   85.4368    8.1804 C.3     1  UNL1        0.1740
     31 O          62.9040   91.3601   12.3108 O.3     1  UNL1       -0.3323
     32 C          64.1814   92.0381   11.9125 C.3     1  UNL1        0.2375
     33 C          65.4737   91.6460   12.5653 C.3     1  UNL1        0.0910
     34 C          66.7512   92.3239   12.1670 C.3     1  UNL1        0.1246
     35 C          68.2097   92.6722   12.1293 C.3     1  UNL1        0.0324
     36 C          66.7362   93.3939   11.1159 C.3     1  UNL1        0.1623
     37 O          68.0137   94.0718   10.7177 O.3     1  UNL1       -0.3796
     38 C          65.4439   93.7860   10.4631 C.3     1  UNL1        0.1468
     39 C          65.4291   94.8560    9.4119 C.3     1  UNL1        0.0348
     40 O          64.1666   93.1081   10.8613 O.3     1  UNL1       -0.3304
     41 H          68.7491   93.7032   11.2316 H       1  UNL1        0.2105
     42 O          67.2726   91.3748   13.2050 O.3     1  UNL1       -0.3532
     43 C          66.9657   91.6066   14.6548 C.3     1  UNL1        0.1740
     44 O          62.3432   88.8738    8.9394 O.3     1  UNL1       -0.3287
     45 C          61.0501   88.7739    8.1858 C.3     1  UNL1        0.2643
     46 O          60.1308   87.6128    8.4244 O.3     1  UNL1       -0.3311
     47 C          58.8377   87.5130    7.6708 C.3     1  UNL1        0.1194
     48 C          57.9183   86.3519    7.9094 C.3     1  UNL1        0.0322
     49 C          58.4639   88.5740    6.6787 C.3     1  UNL1        0.0482
     50 C          59.3832   89.7351    6.4401 C.3     1  UNL1        0.0921
     51 C          60.6763   89.8350    7.1936 C.3     1  UNL1        0.1815
     52 O          61.5956   90.9960    6.9551 O.3     1  UNL1       -0.3783
     53 H          62.3805   90.9079    7.5182 H       1  UNL1        0.2106
     54 N          59.0093   90.7962    5.4480 N.3     1  UNL1       -0.2692
     55 C          57.5680   91.1584    5.2446 C.3     1  UNL1        0.0897
     56 C          60.0768   91.4950    4.6593 C.3     1  UNL1        0.0897
@<TRIPOS>BOND
     1    27    28    1
     2     1    28    1
     3     1     2    1
     4     2     3    1
     5     3     4    2
     6     3     5    1
     7     5     6    1
     8     5     7    1
     9     7    31    1
    10    32    31    1
    11    32    33    1
    12    33    34    1
    13    34    35    1
    14    34    42    1
    15    42    43    1
    16    34    36    1
    17    36    37    1
    18    36    38    1
    19    38    39    1
    20    38    40    1
    21     7     8    1
    22     8     9    1
    23     8    10    1
    24    10    44    1
    25    45    44    1
    26    45    46    1
    27    46    47    1
    28    47    48    1
    29    47    49    1
    30    49    50    1
    31    50    54    1
    32    54    55    1
    33    54    56    1
    34    50    51    1
    35    51    52    1
    36    10    11    1
    37    11    12    1
    38    11    29    1
    39    29    30    1
    40    11    13    1
    41    13    14    1
    42    14    15    1
    43    14    16    1
    44    16    17    2
    45    16    18    1
    46    18    19    1
    47    18    20    1
    48    20    21    1
    49    20    22    1
    50    22    23    1
    51    22    24    1
    52    22     1    1
    53    40    32    1
    54    51    45    1
    55    37    41    1
    56    52    53    1
    57    21    25    1
    58    24    26    1
