@<TRIPOS>MOLECULE
*****
 35 39 0 0 0
SMALL
GASTEIGER

@<TRIPOS>ATOM
      1 N          65.2950   92.5677   11.9073 N.ar    1  UNL1       -0.2757
      2 C          66.1520   93.2250   12.9484 C.ar    1  UNL1        0.3342
      3 O          67.0621   94.3547   12.5666 O.2     1  UNL1       -0.2462
      4 N          66.0988   92.7528   14.3710 N.ar    1  UNL1       -0.2467
      5 C          66.9558   93.4101   15.4120 C.3     1  UNL1        0.1382
      6 C          65.1888   91.6232   14.7528 C.ar    1  UNL1        0.2663
      7 O          65.1356   91.1509   16.1756 O.2     1  UNL1       -0.2668
      8 C          64.3318   90.9659   13.7119 C.ar    1  UNL1        0.0829
      9 C          63.3451   89.8387   13.7896 C.ar    1  UNL1        0.0624
     10 C          62.7885   89.6144   12.4149 C.ar    1  UNL1        0.0176
     11 S          63.4311   90.6029   11.4875 S.2     1  UNL1       -0.0734
     12 C          64.3849   91.4381   12.2892 C.ar    1  UNL1        0.0982
     13 C          62.9793   89.0708   15.0251 C.2     1  UNL1        0.2495
     14 O          61.9969   89.6455   16.0020 O.2     1  UNL1       -0.2699
     15 N          63.5959   87.7280   15.2836 N.am    1  UNL1       -0.2735
     16 C          63.3286   86.8485   16.4689 C.3     1  UNL1        0.0964
     17 C          64.1555   85.6060   16.3201 C.3     1  UNL1        0.0525
     18 C          64.9340   85.7175   15.0427 C.3     1  UNL1        0.1320
     19 O          65.8903   84.6968   14.5011 O.3     1  UNL1       -0.3827
     20 C          64.5881   87.0290   14.4022 C.3     1  UNL1        0.1228
     21 H          65.9334   83.9406   15.1071 H       1  UNL1        0.2104
     22 C          65.3482   93.0400   10.4846 C.3     1  UNL1        0.1109
     23 C          66.9508   94.5658    9.1233 C.3     1  UNL1        0.0020
     24 C          66.6730   93.2660    9.8184 C.3     1  UNL1        0.0228
     25 C          67.7199   92.1921    9.8473 C.3     1  UNL1        0.0020
     26 C          61.7682   88.5827   12.0343 C.3     1  UNL1        0.0610
     27 C          62.0752   87.5866   10.9557 C.2     1  UNL1        0.0030
     28 C          62.0223   87.8422    9.4785 C.2     1  UNL1        0.0945
     29 N          62.4033   86.5736    8.7747 N.2     1  UNL1       -0.2481
     30 C          62.6917   85.5340    9.8168 C.2     1  UNL1        0.0631
     31 C          63.1129   84.0981    9.7124 C.3     1  UNL1        0.0717
     32 C          63.3312   83.2883   10.9560 C.2     1  UNL1       -0.0198
     33 C          63.1284   83.9144   12.3040 C.2     1  UNL1       -0.0042
     34 C          62.7073   85.3503   12.4083 C.2     1  UNL1        0.0006
     35 C          62.4890   86.1600   11.1646 C.2     1  UNL1        0.0117
@<TRIPOS>BOND
     1    23    24    1
     2    24    25    1
     3    24    22    1
     4    22     1    1
     5     1     2   ar
     6     2     3    2
     7     2     4   ar
     8     4     5    1
     9     4     6   ar
    10     6     7    2
    11     6     8   ar
    12     8     9   ar
    13     9    13    1
    14    13    14    2
    15    13    15   am
    16    15    16    1
    17    16    17    1
    18    17    18    1
    19    18    19    1
    20    18    20    1
    21     9    10   ar
    22    10    26    1
    23    26    27    1
    24    27    28    2
    25    28    29    1
    26    29    30    2
    27    30    31    1
    28    31    32    1
    29    32    33    2
    30    33    34    1
    31    34    35    2
    32    10    11   ar
    33    11    12   ar
    34    12     1   ar
    35    12     8   ar
    36    20    15    1
    37    35    27    1
    38    35    30    1
    39    19    21    1
@<TRIPOS>MOLECULE
*****
 35 39 0 0 0
SMALL
GASTEIGER

@<TRIPOS>ATOM
      1 N          63.0122   90.2786   11.4074 N.ar    1  UNL1       -0.2757
      2 C          63.5589   91.3441   10.5041 C.ar    1  UNL1        0.3342
      3 O          63.2064   91.3448    9.0461 O.2     1  UNL1       -0.2462
      4 N          64.4582   92.4088   11.0587 N.ar    1  UNL1       -0.2467
      5 C          65.0049   93.4743   10.1554 C.3     1  UNL1        0.1382
      6 C          64.8107   92.4081   12.5167 C.ar    1  UNL1        0.2663
      7 O          65.7100   93.4729   13.0713 O.2     1  UNL1       -0.2668
      8 C          64.2641   91.3427   13.4200 C.ar    1  UNL1        0.0829
      9 C          64.4353   91.0864   14.8880 C.ar    1  UNL1        0.0624
     10 C          63.6419   89.8632   15.2406 C.ar    1  UNL1        0.0176
     11 S          62.9803   89.3635   13.9905 S.2     1  UNL1       -0.0734
     12 C          63.3648   90.2780   12.8654 C.ar    1  UNL1        0.0982
     13 C          65.2560   91.9088   15.8368 C.2     1  UNL1        0.2495
     14 O          64.6297   92.4670   17.0802 O.2     1  UNL1       -0.2699
     15 N          66.7028   92.1729   15.5422 N.am    1  UNL1       -0.2735
     16 C          67.6440   92.9731   16.3930 C.3     1  UNL1        0.0964
     17 C          68.9854   92.9780   15.7217 C.3     1  UNL1        0.0525
     18 C          68.8732   92.1808   14.4560 C.3     1  UNL1        0.1320
     19 O          69.9778   91.9261   13.4738 O.3     1  UNL1       -0.3827
     20 C          67.4625   91.6833   14.3451 C.3     1  UNL1        0.1228
     21 H          70.7897   92.3590   13.7808 H       1  UNL1        0.2104
     22 C          62.1129   89.2139   10.8527 C.3     1  UNL1        0.1109
     23 C          59.7859   90.2038   11.4481 C.3     1  UNL1        0.0020
     24 C          60.7054   89.5512   10.4589 C.3     1  UNL1        0.0228
     25 C          60.2175   89.2360    9.0760 C.3     1  UNL1        0.0020
     26 C          63.5299   89.2477   16.6039 C.3     1  UNL1        0.0610
     27 C          63.1416   87.8058   16.7462 C.2     1  UNL1        0.0030
     28 C          62.1090   87.2595   17.6871 C.2     1  UNL1        0.0945
     29 N          62.0470   85.7731   17.4951 N.2     1  UNL1       -0.2481
     30 C          63.0413   85.4008   16.4355 C.2     1  UNL1        0.0631
     31 C          63.4181   84.0801   15.8323 C.3     1  UNL1        0.0717
     32 C          64.4714   84.0157   14.7664 C.2     1  UNL1       -0.0198
     33 C          65.1479   85.2719   14.3035 C.2     1  UNL1       -0.0042
     34 C          64.7712   86.5926   14.9067 C.2     1  UNL1        0.0006
     35 C          63.7178   86.6570   15.9727 C.2     1  UNL1        0.0117
@<TRIPOS>BOND
     1    23    24    1
     2    24    25    1
     3    24    22    1
     4    22     1    1
     5     1     2   ar
     6     2     3    2
     7     2     4   ar
     8     4     5    1
     9     4     6   ar
    10     6     7    2
    11     6     8   ar
    12     8     9   ar
    13     9    13    1
    14    13    14    2
    15    13    15   am
    16    15    16    1
    17    16    17    1
    18    17    18    1
    19    18    19    1
    20    18    20    1
    21     9    10   ar
    22    10    26    1
    23    26    27    1
    24    27    28    2
    25    28    29    1
    26    29    30    2
    27    30    31    1
    28    31    32    1
    29    32    33    2
    30    33    34    1
    31    34    35    2
    32    10    11   ar
    33    11    12   ar
    34    12     1   ar
    35    12     8   ar
    36    20    15    1
    37    35    27    1
    38    35    30    1
    39    19    21    1
@<TRIPOS>MOLECULE
*****
 35 39 0 0 0
SMALL
GASTEIGER

@<TRIPOS>ATOM
      1 N          65.5222   92.8539   11.8703 N.ar    1  UNL1       -0.2757
      2 C          66.3760   93.5795   12.8677 C.ar    1  UNL1        0.3342
      3 O          67.2439   94.7195   12.4234 O.2     1  UNL1       -0.2462
      4 N          66.3619   93.1652   14.3092 N.ar    1  UNL1       -0.2467
      5 C          67.2157   93.8907   15.3065 C.3     1  UNL1        0.1382
      6 C          65.4941   92.0252   14.7535 C.ar    1  UNL1        0.2663
      7 O          65.4801   91.6109   16.1950 O.2     1  UNL1       -0.2668
      8 C          64.6404   91.2996   13.7562 C.ar    1  UNL1        0.0829
      9 C          63.6907   90.1472   13.8980 C.ar    1  UNL1        0.0624
     10 C          63.1178   89.8494   12.5440 C.ar    1  UNL1        0.0176
     11 S          63.7134   90.8177   11.5654 S.2     1  UNL1       -0.0734
     12 C          64.6544   91.7140   12.3146 C.ar    1  UNL1        0.0982
     13 C          63.3701   89.4203   15.1703 C.2     1  UNL1        0.2495
     14 O          62.6987   90.1447   16.2992 O.2     1  UNL1       -0.2699
     15 N          63.7210   87.9690   15.3137 N.am    1  UNL1       -0.2735
     16 C          63.4639   87.1147   16.5196 C.3     1  UNL1        0.0964
     17 C          63.9746   85.7349   16.2276 C.3     1  UNL1        0.0525
     18 C          64.5473   85.7364   14.8412 C.3     1  UNL1        0.1320
     19 O          65.1678   84.5631   14.1425 O.3     1  UNL1       -0.3827
     20 C          64.3906   87.1171   14.2765 C.3     1  UNL1        0.1228
     21 H          65.1448   83.7894   14.7271 H       1  UNL1        0.2104
     22 C          65.5363   93.2684   10.4287 C.3     1  UNL1        0.1109
     23 C          67.8326   92.2551    9.7580 C.3     1  UNL1        0.0020
     24 C          66.8385   93.3764    9.6921 C.3     1  UNL1        0.0228
     25 C          67.1466   94.6057    8.8898 C.3     1  UNL1        0.0020
     26 C          62.1239   88.7723   12.2248 C.3     1  UNL1        0.0610
     27 C          61.2497   88.8941   11.0119 C.2     1  UNL1        0.0030
     28 C          60.4329   90.0931   10.6305 C.2     1  UNL1        0.0945
     29 N          59.7172   89.7783    9.3505 N.2     1  UNL1       -0.2481
     30 C          60.0916   88.3848    8.9407 C.2     1  UNL1        0.0631
     31 C          59.6925   87.5428    7.7652 C.3     1  UNL1        0.0717
     32 C          60.2404   86.1545    7.6165 C.2     1  UNL1       -0.0198
     33 C          61.1876   85.6080    8.6433 C.2     1  UNL1       -0.0042
     34 C          61.5867   86.4499    9.8188 C.2     1  UNL1        0.0006
     35 C          61.0387   87.8383    9.9675 C.2     1  UNL1        0.0117
@<TRIPOS>BOND
     1    23    24    1
     2    24    25    1
     3    24    22    1
     4    22     1    1
     5     1     2   ar
     6     2     3    2
     7     2     4   ar
     8     4     5    1
     9     4     6   ar
    10     6     7    2
    11     6     8   ar
    12     8     9   ar
    13     9    13    1
    14    13    14    2
    15    13    15   am
    16    15    16    1
    17    16    17    1
    18    17    18    1
    19    18    19    1
    20    18    20    1
    21     9    10   ar
    22    10    26    1
    23    26    27    1
    24    27    28    2
    25    28    29    1
    26    29    30    2
    27    30    31    1
    28    31    32    1
    29    32    33    2
    30    33    34    1
    31    34    35    2
    32    10    11   ar
    33    11    12   ar
    34    12     1   ar
    35    12     8   ar
    36    20    15    1
    37    35    27    1
    38    35    30    1
    39    19    21    1
@<TRIPOS>MOLECULE
*****
 35 39 0 0 0
SMALL
GASTEIGER

@<TRIPOS>ATOM
      1 N          62.9296   87.5348   11.6835 N.ar    1  UNL1       -0.2757
      2 C          62.9225   86.4400   12.7089 C.ar    1  UNL1        0.3342
      3 O          62.4479   85.0666   12.3364 O.2     1  UNL1       -0.2462
      4 N          63.3898   86.7185   14.1067 N.ar    1  UNL1       -0.2467
      5 C          63.3827   85.6237   15.1321 C.3     1  UNL1        0.1382
      6 C          63.8644   88.0919   14.4792 C.ar    1  UNL1        0.2663
      7 O          64.3317   88.3704   15.8771 O.2     1  UNL1       -0.2668
      8 C          63.8715   89.1867   13.4539 C.ar    1  UNL1        0.0829
      9 C          64.2805   90.6280   13.5273 C.ar    1  UNL1        0.0624
     10 C          64.0658   91.2402   12.1749 C.ar    1  UNL1        0.0176
     11 S          63.5242   90.1773   11.2655 S.2     1  UNL1       -0.0734
     12 C          63.4042   88.9081   12.0560 C.ar    1  UNL1        0.0982
     13 C          64.8109   91.3333   14.7403 C.2     1  UNL1        0.2495
     14 O          63.8954   91.6451   15.8868 O.2     1  UNL1       -0.2699
     15 N          66.2569   91.7267   14.8067 N.am    1  UNL1       -0.2735
     16 C          66.9269   92.4331   15.9478 C.3     1  UNL1        0.0964
     17 C          68.3708   92.6258   15.5900 C.3     1  UNL1        0.0525
     18 C          68.5931   92.0386   14.2277 C.3     1  UNL1        0.1320
     19 O          69.8936   92.0118   13.4808 O.3     1  UNL1       -0.3827
     20 C          67.2867   91.4830   13.7436 C.3     1  UNL1        0.1228
     21 H          70.5824   92.4367   14.0155 H       1  UNL1        0.2104
     22 C          62.4622   87.2562   10.2856 C.3     1  UNL1        0.1109
     23 C          60.4551   86.3853    8.8848 C.3     1  UNL1        0.0020
     24 C          60.9963   87.2704    9.9681 C.3     1  UNL1        0.0228
     25 C          60.0717   88.1696   10.7340 C.3     1  UNL1        0.0020
     26 C          64.3440   92.6652   11.7980 C.3     1  UNL1        0.0610
     27 C          65.5514   93.0010   10.9738 C.2     1  UNL1        0.0030
     28 C          66.6502   92.0535   10.5928 C.2     1  UNL1        0.0945
     29 N          67.6499   92.8102    9.7694 N.2     1  UNL1       -0.2481
     30 C          67.1691   94.2252    9.6415 C.2     1  UNL1        0.0631
     31 C          67.7446   95.4216    8.9434 C.3     1  UNL1        0.0717
     32 C          67.0232   96.7359    8.9895 C.2     1  UNL1       -0.0198
     33 C          65.7263   96.8538    9.7339 C.2     1  UNL1       -0.0042
     34 C          65.1507   95.6575   10.4320 C.2     1  UNL1        0.0006
     35 C          65.8722   94.3431   10.3857 C.2     1  UNL1        0.0117
@<TRIPOS>BOND
     1    23    24    1
     2    24    25    1
     3    24    22    1
     4    22     1    1
     5     1     2   ar
     6     2     3    2
     7     2     4   ar
     8     4     5    1
     9     4     6   ar
    10     6     7    2
    11     6     8   ar
    12     8     9   ar
    13     9    13    1
    14    13    14    2
    15    13    15   am
    16    15    16    1
    17    16    17    1
    18    17    18    1
    19    18    19    1
    20    18    20    1
    21     9    10   ar
    22    10    26    1
    23    26    27    1
    24    27    28    2
    25    28    29    1
    26    29    30    2
    27    30    31    1
    28    31    32    1
    29    32    33    2
    30    33    34    1
    31    34    35    2
    32    10    11   ar
    33    11    12   ar
    34    12     1   ar
    35    12     8   ar
    36    20    15    1
    37    35    27    1
    38    35    30    1
    39    19    21    1
@<TRIPOS>MOLECULE
*****
 35 39 0 0 0
SMALL
GASTEIGER

@<TRIPOS>ATOM
      1 N          65.8461   92.3043   14.0169 N.ar    1  UNL1       -0.2757
      2 C          65.8372   93.1480   12.7767 C.ar    1  UNL1        0.3342
      3 O          66.5843   94.4485   12.7489 O.2     1  UNL1       -0.2462
      4 N          65.0813   92.6913   11.5643 N.ar    1  UNL1       -0.2467
      5 C          65.0723   93.5350   10.3241 C.3     1  UNL1        0.1382
      6 C          64.3342   91.3909   11.5921 C.ar    1  UNL1        0.2663
      7 O          63.5783   90.9342   10.3796 O.2     1  UNL1       -0.2668
      8 C          64.3431   90.5472   12.8323 C.ar    1  UNL1        0.0829
      9 C          63.7042   89.2287   13.1538 C.ar    1  UNL1        0.0624
     10 C          64.0653   88.8706   14.5650 C.ar    1  UNL1        0.0176
     11 S          64.9273   89.9677   15.1156 S.2     1  UNL1       -0.0734
     12 C          65.0990   91.0039   14.0447 C.ar    1  UNL1        0.0982
     13 C          62.8535   88.4118   12.2270 C.2     1  UNL1        0.2495
     14 O          63.3352   87.0734   11.7508 O.2     1  UNL1       -0.2699
     15 N          61.5212   88.9332   11.7763 N.am    1  UNL1       -0.2735
     16 C          60.5658   88.2330   10.8561 C.3     1  UNL1        0.0964
     17 C          59.3645   89.1134   10.6779 C.3     1  UNL1        0.0525
     18 C          59.5775   90.3578   11.4879 C.3     1  UNL1        0.1320
     19 O          58.6249   91.5110   11.5994 O.3     1  UNL1       -0.3827
     20 C          60.9104   90.2464   12.1668 C.3     1  UNL1        0.1228
     21 H          57.8370   91.3326   11.0624 H       1  UNL1        0.2104
     22 C          66.6021   92.7611   15.2294 C.3     1  UNL1        0.1109
     23 C          68.8180   93.8397   16.0516 C.3     1  UNL1        0.0020
     24 C          68.0995   92.8409   15.1935 C.3     1  UNL1        0.0228
     25 C          68.8784   91.9221   14.2996 C.3     1  UNL1        0.0020
     26 C          63.6391   87.6326   15.2970 C.3     1  UNL1        0.0610
     27 C          64.2889   86.3168   14.9870 C.2     1  UNL1        0.0030
     28 C          65.7606   86.0773   14.8223 C.2     1  UNL1        0.0945
     29 N          65.9625   84.6219   14.5207 N.2     1  UNL1       -0.2481
     30 C          64.6157   83.9619   14.4989 C.2     1  UNL1        0.0631
     31 C          64.1975   82.5423   14.2538 C.3     1  UNL1        0.0717
     32 C          62.7450   82.1703   14.2969 C.2     1  UNL1       -0.0198
     33 C          61.7107   83.2178   14.5851 C.2     1  UNL1       -0.0042
     34 C          62.1289   84.6374   14.8301 C.2     1  UNL1        0.0006
     35 C          63.5814   85.0093   14.7870 C.2     1  UNL1        0.0117
@<TRIPOS>BOND
     1    23    24    1
     2    24    25    1
     3    24    22    1
     4    22     1    1
     5     1     2   ar
     6     2     3    2
     7     2     4   ar
     8     4     5    1
     9     4     6   ar
    10     6     7    2
    11     6     8   ar
    12     8     9   ar
    13     9    13    1
    14    13    14    2
    15    13    15   am
    16    15    16    1
    17    16    17    1
    18    17    18    1
    19    18    19    1
    20    18    20    1
    21     9    10   ar
    22    10    26    1
    23    26    27    1
    24    27    28    2
    25    28    29    1
    26    29    30    2
    27    30    31    1
    28    31    32    1
    29    32    33    2
    30    33    34    1
    31    34    35    2
    32    10    11   ar
    33    11    12   ar
    34    12     1   ar
    35    12     8   ar
    36    20    15    1
    37    35    27    1
    38    35    30    1
    39    19    21    1
@<TRIPOS>MOLECULE
*****
 35 39 0 0 0
SMALL
GASTEIGER

@<TRIPOS>ATOM
      1 N          62.9580   88.9123   11.1279 N.ar    1  UNL1       -0.2757
      2 C          62.8296   87.6161   11.8719 C.ar    1  UNL1        0.3342
      3 O          62.1712   86.4377   11.2175 O.2     1  UNL1       -0.2462
      4 N          63.3595   87.4983   13.2701 N.ar    1  UNL1       -0.2467
      5 C          63.2311   86.2021   14.0142 C.3     1  UNL1        0.1382
      6 C          64.0178   88.6766   13.9245 C.ar    1  UNL1        0.2663
      7 O          64.5477   88.5587   15.3228 O.2     1  UNL1       -0.2668
      8 C          64.1462   89.9727   13.1806 C.ar    1  UNL1        0.0829
      9 C          64.7420   91.2950   13.5634 C.ar    1  UNL1        0.0624
     10 C          64.5802   92.2301   12.4017 C.ar    1  UNL1        0.0176
     11 S          63.8845   91.4857   11.3009 S.2     1  UNL1       -0.0734
     12 C          63.6163   90.0906   11.7822 C.ar    1  UNL1        0.0982
     13 C          65.3863   91.6244   14.8773 C.2     1  UNL1        0.2495
     14 O          64.5506   91.7208   16.1192 O.2     1  UNL1       -0.2699
     15 N          66.8664   91.8575   14.9493 N.am    1  UNL1       -0.2735
     16 C          67.6470   92.1933   16.1854 C.3     1  UNL1        0.0964
     17 C          69.0887   92.3390   15.7979 C.3     1  UNL1        0.0525
     18 C          69.1992   92.0931   14.3223 C.3     1  UNL1        0.1320
     19 O          70.4615   92.1371   13.5133 O.3     1  UNL1       -0.3827
     20 C          67.8257   91.7955   13.7979 C.3     1  UNL1        0.1228
     21 H          71.2094   92.3514   14.0926 H       1  UNL1        0.2104
     22 C          62.4280   89.0301    9.7295 C.3     1  UNL1        0.1109
     23 C          60.2584   88.5372    8.3881 C.3     1  UNL1        0.0020
     24 C          60.9633   89.2573    9.4992 C.3     1  UNL1        0.0228
     25 C          60.2036   90.2044   10.3800 C.3     1  UNL1        0.0020
     26 C          65.0345   93.6587   12.3500 C.3     1  UNL1        0.0610
     27 C          65.7057   94.1881   11.1175 C.2     1  UNL1        0.0030
     28 C          65.4425   95.5161   10.4715 C.2     1  UNL1        0.0945
     29 N          66.3321   95.6313    9.2694 N.2     1  UNL1       -0.2481
     30 C          67.1451   94.3745    9.1723 C.2     1  UNL1        0.0631
     31 C          68.1880   93.9270    8.1913 C.3     1  UNL1        0.0717
     32 C          68.8437   92.5876    8.3526 C.2     1  UNL1       -0.0198
     33 C          68.4565   91.6957    9.4948 C.2     1  UNL1       -0.0042
     34 C          67.4137   92.1432   10.4757 C.2     1  UNL1        0.0006
     35 C          66.7580   93.4826   10.3144 C.2     1  UNL1        0.0117
@<TRIPOS>BOND
     1    23    24    1
     2    24    25    1
     3    24    22    1
     4    22     1    1
     5     1     2   ar
     6     2     3    2
     7     2     4   ar
     8     4     5    1
     9     4     6   ar
    10     6     7    2
    11     6     8   ar
    12     8     9   ar
    13     9    13    1
    14    13    14    2
    15    13    15   am
    16    15    16    1
    17    16    17    1
    18    17    18    1
    19    18    19    1
    20    18    20    1
    21     9    10   ar
    22    10    26    1
    23    26    27    1
    24    27    28    2
    25    28    29    1
    26    29    30    2
    27    30    31    1
    28    31    32    1
    29    32    33    2
    30    33    34    1
    31    34    35    2
    32    10    11   ar
    33    11    12   ar
    34    12     1   ar
    35    12     8   ar
    36    20    15    1
    37    35    27    1
    38    35    30    1
    39    19    21    1
@<TRIPOS>MOLECULE
*****
 35 39 0 0 0
SMALL
GASTEIGER

@<TRIPOS>ATOM
      1 N          61.3141   87.7586   10.0553 N.ar    1  UNL1       -0.2757
      2 C          60.9701   87.2564    8.6843 C.ar    1  UNL1        0.3342
      3 O          60.1826   88.1208    7.7447 O.2     1  UNL1       -0.2462
      4 N          61.4136   85.8901    8.2529 N.ar    1  UNL1       -0.2467
      5 C          61.0696   85.3879    6.8819 C.3     1  UNL1        0.1382
      6 C          62.2011   85.0257    9.1924 C.ar    1  UNL1        0.2663
      7 O          62.6447   83.6593    8.7610 O.2     1  UNL1       -0.2668
      8 C          62.5452   85.5278   10.5634 C.ar    1  UNL1        0.0829
      9 C          63.3035   84.9067   11.6987 C.ar    1  UNL1        0.0624
     10 C          63.3287   85.8892   12.8318 C.ar    1  UNL1        0.0176
     11 S          62.5859   87.1176   12.3968 S.2     1  UNL1       -0.0734
     12 C          62.1016   86.8943   10.9948 C.ar    1  UNL1        0.0982
     13 C          63.9272   83.5425   11.7007 C.2     1  UNL1        0.2495
     14 O          65.2016   83.2994   10.9478 O.2     1  UNL1       -0.2699
     15 N          63.2766   82.4214   12.4555 N.am    1  UNL1       -0.2735
     16 C          63.7807   81.0117   12.5485 C.3     1  UNL1        0.0964
     17 C          62.8232   80.2322   13.4003 C.3     1  UNL1        0.0525
     18 C          61.7274   81.1602   13.8339 C.3     1  UNL1        0.1320
     19 O          60.5569   80.7986   14.6994 O.3     1  UNL1       -0.3827
     20 C          62.0076   82.5131   13.2500 C.3     1  UNL1        0.1228
     21 H          60.6120   79.8612   14.9426 H       1  UNL1        0.2104
     22 C          60.8706   89.1251   10.4867 C.3     1  UNL1        0.1109
     23 C          62.8572   90.6785    9.8624 C.3     1  UNL1        0.0020
     24 C          61.8881   90.1544   10.8803 C.3     1  UNL1        0.0228
     25 C          61.9367   90.6596   12.2918 C.3     1  UNL1        0.0020
     26 C          63.9820   85.6801   14.1658 C.3     1  UNL1        0.0610
     27 C          63.6346   86.5737   15.3194 C.2     1  UNL1        0.0030
     28 C          63.0255   86.1387   16.6194 C.2     1  UNL1        0.0945
     29 N          62.8498   87.3553   17.4790 N.2     1  UNL1       -0.2481
     30 C          63.3503   88.5422   16.7103 C.2     1  UNL1        0.0631
     31 C          63.4270   90.0004   17.0534 C.3     1  UNL1        0.0717
     32 C          63.9888   90.9756   16.0617 C.2     1  UNL1       -0.0198
     33 C          64.4739   90.4925   14.7270 C.2     1  UNL1       -0.0042
     34 C          64.3971   89.0343   14.3840 C.2     1  UNL1        0.0006
     35 C          63.8353   88.0592   15.3757 C.2     1  UNL1        0.0117
@<TRIPOS>BOND
     1    23    24    1
     2    24    25    1
     3    24    22    1
     4    22     1    1
     5     1     2   ar
     6     2     3    2
     7     2     4   ar
     8     4     5    1
     9     4     6   ar
    10     6     7    2
    11     6     8   ar
    12     8     9   ar
    13     9    13    1
    14    13    14    2
    15    13    15   am
    16    15    16    1
    17    16    17    1
    18    17    18    1
    19    18    19    1
    20    18    20    1
    21     9    10   ar
    22    10    26    1
    23    26    27    1
    24    27    28    2
    25    28    29    1
    26    29    30    2
    27    30    31    1
    28    31    32    1
    29    32    33    2
    30    33    34    1
    31    34    35    2
    32    10    11   ar
    33    11    12   ar
    34    12     1   ar
    35    12     8   ar
    36    20    15    1
    37    35    27    1
    38    35    30    1
    39    19    21    1
@<TRIPOS>MOLECULE
*****
 35 39 0 0 0
SMALL
GASTEIGER

@<TRIPOS>ATOM
      1 N          58.2096   93.6842   -3.3699 N.ar    1  UNL1       -0.2757
      2 C          57.8170   93.4694   -4.8016 C.ar    1  UNL1        0.3342
      3 O          56.4497   92.9500   -5.1345 O.2     1  UNL1       -0.2462
      4 N          58.7916   93.7739   -5.9003 N.ar    1  UNL1       -0.2467
      5 C          58.3990   93.5591   -7.3321 C.3     1  UNL1        0.1382
      6 C          60.1589   94.2933   -5.5675 C.ar    1  UNL1        0.2663
      7 O          61.1335   94.5979   -6.6663 O.2     1  UNL1       -0.2668
      8 C          60.5515   94.5081   -4.1358 C.ar    1  UNL1        0.0829
      9 C          61.8191   95.0054   -3.5065 C.ar    1  UNL1        0.0624
     10 C          61.6278   95.0081   -2.0187 C.ar    1  UNL1        0.0176
     11 S          60.2421   94.5126   -1.7286 S.2     1  UNL1       -0.0734
     12 C          59.5769   94.2036   -3.0370 C.ar    1  UNL1        0.0982
     13 C          63.0600   95.4260   -4.2366 C.2     1  UNL1        0.2495
     14 O          63.5111   96.8557   -4.1870 O.2     1  UNL1       -0.2699
     15 N          63.8498   94.4170   -5.0165 N.am    1  UNL1       -0.2735
     16 C          65.1043   94.6882   -5.7927 C.3     1  UNL1        0.0964
     17 C          65.5536   93.3985   -6.4130 C.3     1  UNL1        0.0525
     18 C          64.5766   92.3302   -6.0201 C.3     1  UNL1        0.1320
     19 O          64.6414   90.8860   -6.4201 O.3     1  UNL1       -0.3827
     20 C          63.5237   92.9597   -5.1571 C.3     1  UNL1        0.1228
     21 H          65.4203   90.7401   -6.9796 H       1  UNL1        0.2104
     22 C          57.2350   93.3796   -2.2711 C.3     1  UNL1        0.1109
     23 C          56.7819   95.7072   -1.2096 C.3     1  UNL1        0.0020
     24 C          56.2701   94.4320   -1.8113 C.3     1  UNL1        0.0228
     25 C          54.7936   94.2094   -1.9533 C.3     1  UNL1        0.0020
     26 C          62.6439   95.4320   -1.0000 C.3     1  UNL1        0.0610
     27 C          63.3333   94.4023   -0.1548 C.2     1  UNL1        0.0030
     28 C          64.7595   93.9585   -0.2940 C.2     1  UNL1        0.0945
     29 N          65.0253   92.9175    0.7526 N.2     1  UNL1       -0.2481
     30 C          63.7635   92.7178    1.5387 C.2     1  UNL1        0.0631
     31 C          63.4315   91.8189    2.6927 C.3     1  UNL1        0.0717
     32 C          62.0540   91.8377    3.2859 C.2     1  UNL1       -0.0198
     33 C          61.0083   92.7553    2.7251 C.2     1  UNL1       -0.0042
     34 C          61.3402   93.6542    1.5710 C.2     1  UNL1        0.0006
     35 C          62.7178   93.6354    0.9779 C.2     1  UNL1        0.0117
@<TRIPOS>BOND
     1    23    24    1
     2    24    25    1
     3    24    22    1
     4    22     1    1
     5     1     2   ar
     6     2     3    2
     7     2     4   ar
     8     4     5    1
     9     4     6   ar
    10     6     7    2
    11     6     8   ar
    12     8     9   ar
    13     9    13    1
    14    13    14    2
    15    13    15   am
    16    15    16    1
    17    16    17    1
    18    17    18    1
    19    18    19    1
    20    18    20    1
    21     9    10   ar
    22    10    26    1
    23    26    27    1
    24    27    28    2
    25    28    29    1
    26    29    30    2
    27    30    31    1
    28    31    32    1
    29    32    33    2
    30    33    34    1
    31    34    35    2
    32    10    11   ar
    33    11    12   ar
    34    12     1   ar
    35    12     8   ar
    36    20    15    1
    37    35    27    1
    38    35    30    1
    39    19    21    1
@<TRIPOS>MOLECULE
*****
 35 39 0 0 0
SMALL
GASTEIGER

@<TRIPOS>ATOM
      1 N          63.5662   84.8418   12.5567 N.ar    1  UNL1       -0.2757
      2 C          63.5507   83.8809   11.4049 C.ar    1  UNL1        0.3342
      3 O          63.9294   82.4455   11.6206 O.2     1  UNL1       -0.2462
      4 N          63.1566   84.3553   10.0376 N.ar    1  UNL1       -0.2467
      5 C          63.1411   83.3944    8.8859 C.3     1  UNL1        0.1382
      6 C          62.7780   85.7906    9.8220 C.ar    1  UNL1        0.2663
      7 O          62.3839   86.2650    8.4546 O.2     1  UNL1       -0.2668
      8 C          62.7935   86.7515   10.9737 C.ar    1  UNL1        0.0829
      9 C          62.4722   88.2138   11.0651 C.ar    1  UNL1        0.0624
     10 C          62.6679   88.6432   12.4890 C.ar    1  UNL1        0.0176
     11 S          63.1099   87.4462   13.2776 S.2     1  UNL1       -0.0734
     12 C          63.1876   86.2771   12.3410 C.ar    1  UNL1        0.0982
     13 C          62.0326   89.0926    9.9317 C.2     1  UNL1        0.2495
     14 O          62.7518   90.3802    9.6586 O.2     1  UNL1       -0.2699
     15 N          60.8738   88.6836    9.0715 N.am    1  UNL1       -0.2735
     16 C          60.3233   89.4551    7.9089 C.3     1  UNL1        0.0964
     17 C          59.1713   88.6797    7.3418 C.3     1  UNL1        0.0525
     18 C          59.0099   87.4289    8.1538 C.3     1  UNL1        0.1320
     19 O          57.9776   86.3629    7.9352 O.3     1  UNL1       -0.3827
     20 C          60.0621   87.4314    9.2229 C.3     1  UNL1        0.1228
     21 H          57.4194   86.6036    7.1793 H       1  UNL1        0.2104
     22 C          63.9604   84.3673   13.9240 C.3     1  UNL1        0.1109
     23 C          62.5130   84.7149   16.0534 C.3     1  UNL1        0.0020
     24 C          62.9128   83.8738   14.8775 C.3     1  UNL1        0.0228
     25 C          62.2651   82.5393   14.6551 C.3     1  UNL1        0.0020
     26 C          62.4582   90.0267   13.0294 C.3     1  UNL1        0.0610
     27 C          63.6234   90.8107   13.5560 C.2     1  UNL1        0.0030
     28 C          64.0736   90.8683   14.9858 C.2     1  UNL1        0.0945
     29 N          65.2715   91.7681   15.0587 N.2     1  UNL1       -0.2481
     30 C          65.5618   92.2666   13.6741 C.2     1  UNL1        0.0631
     31 C          66.6220   93.1829   13.1390 C.3     1  UNL1        0.0717
     32 C          66.6636   93.5076   11.6752 C.2     1  UNL1       -0.0198
     33 C          65.6451   92.9159   10.7464 C.2     1  UNL1       -0.0042
     34 C          64.5849   91.9996   11.2815 C.2     1  UNL1        0.0006
     35 C          64.5433   91.6750   12.7454 C.2     1  UNL1        0.0117
@<TRIPOS>BOND
     1    23    24    1
     2    24    25    1
     3    24    22    1
     4    22     1    1
     5     1     2   ar
     6     2     3    2
     7     2     4   ar
     8     4     5    1
     9     4     6   ar
    10     6     7    2
    11     6     8   ar
    12     8     9   ar
    13     9    13    1
    14    13    14    2
    15    13    15   am
    16    15    16    1
    17    16    17    1
    18    17    18    1
    19    18    19    1
    20    18    20    1
    21     9    10   ar
    22    10    26    1
    23    26    27    1
    24    27    28    2
    25    28    29    1
    26    29    30    2
    27    30    31    1
    28    31    32    1
    29    32    33    2
    30    33    34    1
    31    34    35    2
    32    10    11   ar
    33    11    12   ar
    34    12     1   ar
    35    12     8   ar
    36    20    15    1
    37    35    27    1
    38    35    30    1
    39    19    21    1
