@<TRIPOS>MOLECULE
*****
 22 24 0 0 0
SMALL
GASTEIGER

@<TRIPOS>ATOM
      1 C          63.9817   86.2193   15.4281 C.ar    1  UNL1        0.2462
      2 C          63.2539   86.4059   16.7264 C.ar    1  UNL1        0.1565
      3 N          62.8885   87.7849   17.1898 N.ar    1  UNL1       -0.2345
      4 C          63.2509   88.9773   16.3550 C.ar    1  UNL1        0.1333
      5 C          63.9787   88.7907   15.0568 C.ar    1  UNL1        0.1543
      6 N          64.3441   87.4117   14.5933 N.ar    1  UNL1       -0.1938
      7 N          64.3412   89.9831   14.2220 N.pl3   1  UNL1       -0.2891
      8 C          63.6267   90.2378   12.9279 C.3     1  UNL1        0.1093
      9 C          63.9891   91.4301   12.0931 C.3     1  UNL1        0.0904
     10 N          65.0660   92.3679   12.5524 N.3     1  UNL1       -0.2946
     11 C          65.7804   92.1132   13.8464 C.3     1  UNL1        0.0904
     12 C          65.4180   90.9208   14.6812 C.3     1  UNL1        0.1093
     13 H          64.6396   93.2914   12.6282 H       1  UNL1        0.1233
     14 O          64.3472   84.8403   14.9647 O.3     1  UNL1       -0.4542
     15 C          63.3632   84.0292   14.1749 C.3     1  UNL1        0.2338
     16 CL         61.7052   86.0889    9.7017 Cl      1  UNL1       -0.0823
     17 C          62.5597   85.1009   10.4391 C.ar    1  UNL1        0.0575
     18 C          63.4397   84.1548    9.6773 C.ar    1  UNL1        0.0114
     19 C          64.2943   83.1669   10.4146 C.ar    1  UNL1        0.0007
     20 C          64.2688   83.1250   11.9138 C.ar    1  UNL1       -0.0006
     21 C          63.3887   84.0710   12.6756 C.ar    1  UNL1        0.0221
     22 C          62.5342   85.0590   11.9383 C.ar    1  UNL1        0.0107
@<TRIPOS>BOND
     1    16    17    1
     2    17    18   ar
     3    18    19   ar
     4    19    20   ar
     5    20    21   ar
     6    21    15    1
     7    15    14    1
     8    14     1    1
     9     1     2   ar
    10     2     3   ar
    11     3     4   ar
    12     4     5   ar
    13     5     7    1
    14     7     8    1
    15     8     9    1
    16     9    10    1
    17    10    11    1
    18    11    12    1
    19     5     6   ar
    20    21    22   ar
    21    22    17   ar
    22     6     1   ar
    23    12     7    1
    24    10    13    1
@<TRIPOS>MOLECULE
*****
 22 24 0 0 0
SMALL
GASTEIGER

@<TRIPOS>ATOM
      1 C          63.9414   86.2047   15.6384 C.ar    1  UNL1        0.2462
      2 C          63.2207   86.4988   16.9206 C.ar    1  UNL1        0.1565
      3 N          62.8500   87.9106   17.2658 N.ar    1  UNL1       -0.2345
      4 C          63.1999   89.0284   16.3287 C.ar    1  UNL1        0.1333
      5 C          63.9206   88.7344   15.0465 C.ar    1  UNL1        0.1543
      6 N          64.2914   87.3225   14.7014 N.ar    1  UNL1       -0.1938
      7 N          64.2706   89.8522   14.1095 N.pl3   1  UNL1       -0.2891
      8 C          65.3923   90.7894   14.4459 C.3     1  UNL1        0.1093
      9 C          65.7423   91.9072   13.5089 C.3     1  UNL1        0.0904
     10 N          64.9705   92.0878   12.2354 N.3     1  UNL1       -0.2946
     11 C          63.8488   91.1505   11.8990 C.3     1  UNL1        0.0904
     12 C          63.4988   90.0327   12.8360 C.3     1  UNL1        0.1093
     13 H          65.6440   92.0270   11.4718 H       1  UNL1        0.1233
     14 O          64.3122   84.7928   15.2932 O.3     1  UNL1       -0.4542
     15 C          63.2453   83.7454   15.1721 C.3     1  UNL1        0.2338
     16 CL         64.2889   82.9972   10.1372 Cl      1  UNL1       -0.0823
     17 C          63.6945   82.5131   11.4265 C.ar    1  UNL1        0.0575
     18 C          63.0275   81.1710   11.4877 C.ar    1  UNL1        0.0114
     19 C          62.4331   80.6870   12.7771 C.ar    1  UNL1        0.0007
     20 C          62.5057   81.5451   14.0052 C.ar    1  UNL1       -0.0006
     21 C          63.1727   82.8872   13.9440 C.ar    1  UNL1        0.0221
     22 C          63.7671   83.3713   12.6546 C.ar    1  UNL1        0.0107
@<TRIPOS>BOND
     1    16    17    1
     2    17    18   ar
     3    18    19   ar
     4    19    20   ar
     5    20    21   ar
     6    21    15    1
     7    15    14    1
     8    14     1    1
     9     1     2   ar
    10     2     3   ar
    11     3     4   ar
    12     4     5   ar
    13     5     7    1
    14     7     8    1
    15     8     9    1
    16     9    10    1
    17    10    11    1
    18    11    12    1
    19     5     6   ar
    20    21    22   ar
    21    22    17   ar
    22     6     1   ar
    23    12     7    1
    24    10    13    1
@<TRIPOS>MOLECULE
*****
 22 24 0 0 0
SMALL
GASTEIGER

@<TRIPOS>ATOM
      1 C          63.9487   86.1992   15.6168 C.ar    1  UNL1        0.2462
      2 C          63.2245   86.4841   16.8991 C.ar    1  UNL1        0.1565
      3 N          62.8490   87.8929   17.2513 N.ar    1  UNL1       -0.2345
      4 C          63.1978   89.0169   16.3212 C.ar    1  UNL1        0.1333
      5 C          63.9219   88.7321   15.0389 C.ar    1  UNL1        0.1543
      6 N          64.2974   87.3232   14.6867 N.ar    1  UNL1       -0.1938
      7 N          64.2707   89.8560   14.1089 N.pl3   1  UNL1       -0.2891
      8 C          65.3879   90.7957   14.4537 C.3     1  UNL1        0.1093
      9 C          65.7366   91.9197   13.5236 C.3     1  UNL1        0.0904
     10 N          64.9682   92.1040   12.2487 N.3     1  UNL1       -0.2946
     11 C          63.8510   91.1644   11.9039 C.3     1  UNL1        0.0904
     12 C          63.5022   90.0404   12.8340 C.3     1  UNL1        0.1093
     13 H          65.6443   92.0498   11.4869 H       1  UNL1        0.1233
     14 O          64.3241   84.7903   15.2645 O.3     1  UNL1       -0.4542
     15 C          64.7752   84.4600   13.8725 C.3     1  UNL1        0.2338
     16 CL         61.4335   80.4845   13.7039 Cl      1  UNL1       -0.0823
     17 C          62.4243   81.3786   13.0192 C.ar    1  UNL1        0.0575
     18 C          62.7352   81.1790   11.5654 C.ar    1  UNL1        0.0114
     19 C          63.7260   82.0730   10.8807 C.ar    1  UNL1        0.0007
     20 C          64.4060   83.1667   11.6497 C.ar    1  UNL1       -0.0006
     21 C          64.0951   83.3663   13.1034 C.ar    1  UNL1        0.0221
     22 C          63.1043   82.4722   13.7882 C.ar    1  UNL1        0.0107
@<TRIPOS>BOND
     1    16    17    1
     2    17    18   ar
     3    18    19   ar
     4    19    20   ar
     5    20    21   ar
     6    21    15    1
     7    15    14    1
     8    14     1    1
     9     1     2   ar
    10     2     3   ar
    11     3     4   ar
    12     4     5   ar
    13     5     7    1
    14     7     8    1
    15     8     9    1
    16     9    10    1
    17    10    11    1
    18    11    12    1
    19     5     6   ar
    20    21    22   ar
    21    22    17   ar
    22     6     1   ar
    23    12     7    1
    24    10    13    1
@<TRIPOS>MOLECULE
*****
 22 24 0 0 0
SMALL
GASTEIGER

@<TRIPOS>ATOM
      1 C          63.4172   90.8080   12.4293 C.ar    1  UNL1        0.2462
      2 C          63.7502   90.7941   13.8918 C.ar    1  UNL1        0.1565
      3 N          64.9226   91.5788   14.4015 N.ar    1  UNL1       -0.2345
      4 C          65.7619   92.3774   13.4487 C.ar    1  UNL1        0.1333
      5 C          65.4288   92.3913   11.9863 C.ar    1  UNL1        0.1543
      6 N          64.2565   91.6067   11.4766 N.ar    1  UNL1       -0.1938
      7 N          66.2682   93.1900   11.0335 N.pl3   1  UNL1       -0.2891
      8 C          66.0791   94.6744   10.9305 C.3     1  UNL1        0.1093
      9 C          66.9184   95.4730    9.9777 C.3     1  UNL1        0.0904
     10 N          67.9468   94.7872    9.1280 N.3     1  UNL1       -0.2946
     11 C          68.1359   93.3028    9.2310 C.3     1  UNL1        0.0904
     12 C          67.2965   92.5042   10.1838 C.3     1  UNL1        0.1093
     13 H          68.8456   95.2147    9.3510 H       1  UNL1        0.1233
     14 O          62.2448   90.0233   11.9195 O.3     1  UNL1       -0.4542
     15 C          61.8675   90.0953   10.4696 C.3     1  UNL1        0.2338
     16 CL         62.8908   85.2333    8.9484 Cl      1  UNL1       -0.0823
     17 C          61.9732   86.4196    8.9770 C.ar    1  UNL1        0.0575
     18 C          60.6498   86.3612    8.2734 C.ar    1  UNL1        0.0114
     19 C          59.7322   87.5475    8.3019 C.ar    1  UNL1        0.0007
     20 C          60.1381   88.7922    9.0340 C.ar    1  UNL1       -0.0006
     21 C          61.4615   88.8506    9.7375 C.ar    1  UNL1        0.0221
     22 C          62.3791   87.6643    9.7090 C.ar    1  UNL1        0.0107
@<TRIPOS>BOND
     1    16    17    1
     2    17    18   ar
     3    18    19   ar
     4    19    20   ar
     5    20    21   ar
     6    21    15    1
     7    15    14    1
     8    14     1    1
     9     1     2   ar
    10     2     3   ar
    11     3     4   ar
    12     4     5   ar
    13     5     7    1
    14     7     8    1
    15     8     9    1
    16     9    10    1
    17    10    11    1
    18    11    12    1
    19     5     6   ar
    20    21    22   ar
    21    22    17   ar
    22     6     1   ar
    23    12     7    1
    24    10    13    1
@<TRIPOS>MOLECULE
*****
 22 24 0 0 0
SMALL
GASTEIGER

@<TRIPOS>ATOM
      1 C          63.9764   90.9817   13.1883 C.ar    1  UNL1        0.2462
      2 C          64.4077   91.1725   14.6122 C.ar    1  UNL1        0.1565
      3 N          65.4978   92.1488   14.9412 N.ar    1  UNL1       -0.2345
      4 C          66.1567   92.9344   13.8464 C.ar    1  UNL1        0.1333
      5 C          65.7253   92.7437   12.4225 C.ar    1  UNL1        0.1543
      6 N          64.6352   91.7674   12.0934 N.ar    1  UNL1       -0.1938
      7 N          66.3842   93.5294   11.3276 N.pl3   1  UNL1       -0.2891
      8 C          67.1906   92.8230   10.2785 C.3     1  UNL1        0.1093
      9 C          67.8495   93.6086    9.1836 C.3     1  UNL1        0.0904
     10 N          67.7018   95.1006    9.1378 N.3     1  UNL1       -0.2946
     11 C          66.8953   95.8070   10.1869 C.3     1  UNL1        0.0904
     12 C          66.2365   95.0213   11.2818 C.3     1  UNL1        0.1093
     13 H          67.2776   95.3271    8.2383 H       1  UNL1        0.1233
     14 O          62.8862   90.0054   12.8592 O.3     1  UNL1       -0.4542
     15 C          63.2315   88.6511   12.3146 C.3     1  UNL1        0.2338
     16 CL         60.0078   89.1202    8.2664 Cl      1  UNL1       -0.0823
     17 C          60.7531   88.2564    9.2402 C.ar    1  UNL1        0.0575
     18 C          60.6318   86.7633    9.1638 C.ar    1  UNL1        0.0114
     19 C          61.3771   85.8994   10.1376 C.ar    1  UNL1        0.0007
     20 C          62.2437   86.5287   11.1878 C.ar    1  UNL1       -0.0006
     21 C          62.3649   88.0218   11.2643 C.ar    1  UNL1        0.0221
     22 C          61.6196   88.8856   10.2905 C.ar    1  UNL1        0.0107
@<TRIPOS>BOND
     1    16    17    1
     2    17    18   ar
     3    18    19   ar
     4    19    20   ar
     5    20    21   ar
     6    21    15    1
     7    15    14    1
     8    14     1    1
     9     1     2   ar
    10     2     3   ar
    11     3     4   ar
    12     4     5   ar
    13     5     7    1
    14     7     8    1
    15     8     9    1
    16     9    10    1
    17    10    11    1
    18    11    12    1
    19     5     6   ar
    20    21    22   ar
    21    22    17   ar
    22     6     1   ar
    23    12     7    1
    24    10    13    1
@<TRIPOS>MOLECULE
*****
 22 24 0 0 0
SMALL
GASTEIGER

@<TRIPOS>ATOM
      1 C          63.1590   84.4726   12.6427 C.ar    1  UNL1        0.2462
      2 C          63.6412   83.5088   11.5993 C.ar    1  UNL1        0.1565
      3 N          63.4879   83.8400   10.1444 N.ar    1  UNL1       -0.2345
      4 C          62.8525   85.1349    9.7328 C.ar    1  UNL1        0.1333
      5 C          62.3703   86.0987   10.7762 C.ar    1  UNL1        0.1543
      6 N          62.5236   85.7675   12.2311 N.ar    1  UNL1       -0.1938
      7 N          61.7349   87.3936   10.3646 N.pl3   1  UNL1       -0.2891
      8 C          62.1345   88.6727   11.0387 C.3     1  UNL1        0.1093
      9 C          61.4991   89.9676   10.6271 C.3     1  UNL1        0.0904
     10 N          60.4641   89.9835    9.5415 N.3     1  UNL1       -0.2946
     11 C          60.0646   88.7045    8.8674 C.3     1  UNL1        0.0904
     12 C          60.7000   87.4095    9.2790 C.3     1  UNL1        0.1093
     13 H          60.8128   90.6047    8.8114 H       1  UNL1        0.1233
     14 O          63.3122   84.1414   14.0977 O.3     1  UNL1       -0.4542
     15 C          64.3060   84.8890   14.9364 C.3     1  UNL1        0.2338
     16 CL         64.4496   90.0626   14.4750 Cl      1  UNL1       -0.0823
     17 C          64.0381   88.8372   15.2360 C.ar    1  UNL1        0.0575
     18 C          63.2870   88.9732   16.5272 C.ar    1  UNL1        0.0114
     19 C          62.8755   87.7478   17.2881 C.ar    1  UNL1        0.0007
     20 C          63.2152   86.3864   16.7579 C.ar    1  UNL1       -0.0006
     21 C          63.9663   86.2505   15.4667 C.ar    1  UNL1        0.0221
     22 C          64.3778   87.4759   14.7057 C.ar    1  UNL1        0.0107
@<TRIPOS>BOND
     1    16    17    1
     2    17    18   ar
     3    18    19   ar
     4    19    20   ar
     5    20    21   ar
     6    21    15    1
     7    15    14    1
     8    14     1    1
     9     1     2   ar
    10     2     3   ar
    11     3     4   ar
    12     4     5   ar
    13     5     7    1
    14     7     8    1
    15     8     9    1
    16     9    10    1
    17    10    11    1
    18    11    12    1
    19     5     6   ar
    20    21    22   ar
    21    22    17   ar
    22     6     1   ar
    23    12     7    1
    24    10    13    1
@<TRIPOS>MOLECULE
*****
 22 24 0 0 0
SMALL
GASTEIGER

@<TRIPOS>ATOM
      1 C          62.1401   88.4347   11.3897 C.ar    1  UNL1        0.2462
      2 C          62.0251   89.0910   10.0458 C.ar    1  UNL1        0.1565
      3 N          62.6417   90.4385    9.8141 N.ar    1  UNL1       -0.2345
      4 C          63.3733   91.1299   10.9261 C.ar    1  UNL1        0.1333
      5 C          63.4883   90.4737   12.2700 C.ar    1  UNL1        0.1543
      6 N          62.8717   89.1261   12.5018 N.ar    1  UNL1       -0.1938
      7 N          64.2200   91.1650   13.3821 N.pl3   1  UNL1       -0.2891
      8 C          65.3399   92.1121   13.0682 C.3     1  UNL1        0.1093
      9 C          66.0716   92.8035   14.1803 C.3     1  UNL1        0.0904
     10 N          65.6832   92.5477   15.6063 N.3     1  UNL1       -0.2946
     11 C          64.5632   91.6007   15.9203 C.3     1  UNL1        0.0904
     12 C          63.8316   90.9093   14.8082 C.3     1  UNL1        0.1093
     13 H          65.4275   93.4497   16.0081 H       1  UNL1        0.1233
     14 O          61.5235   87.0871   11.6216 O.3     1  UNL1       -0.4542
     15 C          61.7551   85.9773   10.6394 C.3     1  UNL1        0.2338
     16 CL         63.9433   82.9218   14.2277 Cl      1  UNL1       -0.0823
     17 C          63.7555   83.3089   12.7908 C.ar    1  UNL1        0.0575
     18 C          64.4741   82.5555   11.7110 C.ar    1  UNL1        0.0114
     19 C          64.2863   82.9426   10.2740 C.ar    1  UNL1        0.0007
     20 C          63.3800   84.0832    9.9168 C.ar    1  UNL1       -0.0006
     21 C          62.6615   84.8367   10.9966 C.ar    1  UNL1        0.0221
     22 C          62.8492   84.4495   12.4336 C.ar    1  UNL1        0.0107
@<TRIPOS>BOND
     1    16    17    1
     2    17    18   ar
     3    18    19   ar
     4    19    20   ar
     5    20    21   ar
     6    21    15    1
     7    15    14    1
     8    14     1    1
     9     1     2   ar
    10     2     3   ar
    11     3     4   ar
    12     4     5   ar
    13     5     7    1
    14     7     8    1
    15     8     9    1
    16     9    10    1
    17    10    11    1
    18    11    12    1
    19     5     6   ar
    20    21    22   ar
    21    22    17   ar
    22     6     1   ar
    23    12     7    1
    24    10    13    1
@<TRIPOS>MOLECULE
*****
 22 24 0 0 0
SMALL
GASTEIGER

@<TRIPOS>ATOM
      1 C          61.8972   87.4992   11.0512 C.ar    1  UNL1        0.2462
      2 C          62.1214   87.3059    9.5807 C.ar    1  UNL1        0.1565
      3 N          62.5383   85.9641    9.0557 N.ar    1  UNL1       -0.2345
      4 C          62.7310   84.8156   10.0011 C.ar    1  UNL1        0.1333
      5 C          62.5068   85.0089   11.4716 C.ar    1  UNL1        0.1543
      6 N          62.0899   86.3507   11.9966 N.ar    1  UNL1       -0.1938
      7 N          62.6995   83.8604   12.4170 N.pl3   1  UNL1       -0.2891
      8 C          62.7979   84.1120   13.8924 C.3     1  UNL1        0.1093
      9 C          62.9906   82.9635   14.8378 C.3     1  UNL1        0.0904
     10 N          63.0849   81.5634   14.3078 N.3     1  UNL1       -0.2946
     11 C          62.9864   81.3119   12.8324 C.3     1  UNL1        0.0904
     12 C          62.7937   82.4604   11.8869 C.3     1  UNL1        0.1093
     13 H          62.3346   81.0308   14.7480 H       1  UNL1        0.1233
     14 O          61.4802   88.8411   11.5763 O.3     1  UNL1       -0.4542
     15 C          62.3467   90.0420   11.3379 C.3     1  UNL1        0.2338
     16 CL         66.2058   93.1770   12.8478 Cl      1  UNL1       -0.0823
     17 C          65.3622   91.9563   13.0678 C.ar    1  UNL1        0.0575
     18 C          65.6046   91.0825   14.2626 C.ar    1  UNL1        0.0114
     19 C          64.7610   89.8619   14.4826 C.ar    1  UNL1        0.0007
     20 C          63.6750   89.5150   13.5077 C.ar    1  UNL1       -0.0006
     21 C          63.4327   90.3889   12.3128 C.ar    1  UNL1        0.0221
     22 C          64.2763   91.6095   12.0929 C.ar    1  UNL1        0.0107
@<TRIPOS>BOND
     1    16    17    1
     2    17    18   ar
     3    18    19   ar
     4    19    20   ar
     5    20    21   ar
     6    21    15    1
     7    15    14    1
     8    14     1    1
     9     1     2   ar
    10     2     3   ar
    11     3     4   ar
    12     4     5   ar
    13     5     7    1
    14     7     8    1
    15     8     9    1
    16     9    10    1
    17    10    11    1
    18    11    12    1
    19     5     6   ar
    20    21    22   ar
    21    22    17   ar
    22     6     1   ar
    23    12     7    1
    24    10    13    1
@<TRIPOS>MOLECULE
*****
 22 24 0 0 0
SMALL
GASTEIGER

@<TRIPOS>ATOM
      1 C          63.2809   88.0871   12.5138 C.ar    1  UNL1        0.2462
      2 C          63.9276   88.7540   13.6915 C.ar    1  UNL1        0.1565
      3 N          64.4159   87.9296   14.8455 N.ar    1  UNL1       -0.2345
      4 C          64.2575   86.4381   14.8218 C.ar    1  UNL1        0.1333
      5 C          63.6108   85.7712   13.6442 C.ar    1  UNL1        0.1543
      6 N          63.1225   86.5956   12.4902 N.ar    1  UNL1       -0.1938
      7 N          63.4524   84.2798   13.6205 N.pl3   1  UNL1       -0.2891
      8 C          64.3064   83.4492   12.7090 C.3     1  UNL1        0.1093
      9 C          64.1480   81.9578   12.6853 C.3     1  UNL1        0.0904
     10 N          63.1357   81.2969   13.5732 N.3     1  UNL1       -0.2946
     11 C          62.2818   82.1274   14.4848 C.3     1  UNL1        0.0904
     12 C          62.4402   83.6189   14.5084 C.3     1  UNL1        0.1093
     13 H          63.6462   80.6410   14.1645 H       1  UNL1        0.1233
     14 O          62.7926   88.9115   11.3597 O.3     1  UNL1       -0.4542
     15 C          61.3795   88.7653   10.8784 C.3     1  UNL1        0.2338
     16 CL         62.8484   84.9473    7.6745 Cl      1  UNL1       -0.0823
     17 C          61.7916   85.8836    8.1810 C.ar    1  UNL1        0.0575
     18 C          60.4126   85.8473    7.5921 C.ar    1  UNL1        0.0114
     19 C          59.3558   86.7836    8.0986 C.ar    1  UNL1        0.0007
     20 C          59.6781   87.7563    9.1940 C.ar    1  UNL1       -0.0006
     21 C          61.0571   87.7926    9.7829 C.ar    1  UNL1        0.0221
     22 C          62.1139   86.8563    9.2764 C.ar    1  UNL1        0.0107
@<TRIPOS>BOND
     1    16    17    1
     2    17    18   ar
     3    18    19   ar
     4    19    20   ar
     5    20    21   ar
     6    21    15    1
     7    15    14    1
     8    14     1    1
     9     1     2   ar
    10     2     3   ar
    11     3     4   ar
    12     4     5   ar
    13     5     7    1
    14     7     8    1
    15     8     9    1
    16     9    10    1
    17    10    11    1
    18    11    12    1
    19     5     6   ar
    20    21    22   ar
    21    22    17   ar
    22     6     1   ar
    23    12     7    1
    24    10    13    1
