@<TRIPOS>MOLECULE
*****
 41 45 0 0 0
SMALL
GASTEIGER

@<TRIPOS>ATOM
      1 C          59.5947   92.5720    4.0747 C.3     1  UNL1        0.0758
      2 C          58.1846   92.2571    4.4776 C.3     1  UNL1        0.0370
      3 C          57.8975   91.0512    5.3222 C.3     1  UNL1        0.0741
      4 N          59.0205   90.1603    5.7639 N.3     1  UNL1       -0.2688
      5 C          60.4306   90.4752    5.3610 C.3     1  UNL1        0.0741
      6 C          60.7177   91.6811    4.5164 C.3     1  UNL1        0.0370
      7 O          59.5268   92.3588    1.0831 O.2     1  UNL1       -0.2528
      8 C          59.8479   93.6713    1.7343 C.2     1  UNL1        0.3010
      9 N          59.8818   93.7780    3.2301 N.am    1  UNL1       -0.2905
     10 N          60.1350   94.8773    0.8897 N.am    1  UNL1       -0.2849
     11 H          60.0926   94.6395    3.6575 H       1  UNL1        0.1509
     12 H          60.3458   95.7388    1.3171 H       1  UNL1        0.1513
     13 C          60.1011   94.7706   -0.6061 C.3     1  UNL1        0.1181
     14 C          61.3104   94.2887   -1.3512 C.ar    1  UNL1       -0.0026
     15 C          62.6106   94.0984   -0.6278 C.ar    1  UNL1       -0.0026
     16 C          63.8199   93.6165   -1.3729 C.ar    1  UNL1       -0.0003
     17 C          63.7291   93.3248   -2.8415 C.ar    1  UNL1       -0.0000
     18 C          62.4290   93.5151   -3.5649 C.ar    1  UNL1       -0.0003
     19 C          61.2196   93.9970   -2.8198 C.ar    1  UNL1       -0.0026
     20 C          58.8578   95.1459   -1.3568 C.3     1  UNL1        0.1317
     21 N          57.7524   94.1460   -1.5245 N.ar    1  UNL1       -0.3058
     22 C          57.9178   92.7040   -1.9028 C.ar    1  UNL1        0.0981
     23 C          56.5551   92.0793   -1.9555 C.ar    1  UNL1        0.1193
     24 N          55.5474   93.1353   -1.6097 N.ar    1  UNL1       -0.2223
     25 C          56.2874   94.4126   -1.3434 C.ar    1  UNL1        0.1787
     26 C          58.7333   88.9543    6.6085 C.3     1  UNL1        0.1007
     27 C          59.6589   88.5866    7.7302 C.ar    1  UNL1        0.0129
     28 C          60.1572   89.5112    8.8011 C.ar    1  UNL1        0.0176
     29 C          61.0549   88.7258    9.7106 C.ar    1  UNL1        0.0799
     30 N          61.1114   87.3158    9.2018 N.ar    1  UNL1       -0.3038
     31 C          60.2486   87.2298    7.9779 C.ar    1  UNL1        0.0772
     32 C          61.8934   86.1896    9.8102 C.ar    1  UNL1        0.0640
     33 C          61.7797   85.9049   11.2785 C.ar    1  UNL1        0.0175
     34 C          62.5617   84.7787   11.8869 C.ar    1  UNL1        0.0053
     35 C          63.4574   83.9372   11.0270 C.ar    1  UNL1        0.0715
     36 C          63.5711   84.2219    9.5587 C.ar    1  UNL1        0.0053
     37 C          62.7891   85.3481    8.9503 C.ar    1  UNL1        0.0175
     38 C          64.2394   82.8110   11.6354 C.3     1  UNL1        0.4186
     39 F          65.0214   81.6848   12.2437 F       1  UNL1       -0.1659
     40 F          64.1459   83.4718   12.9787 F       1  UNL1       -0.1659
     41 F          64.3329   82.1502   10.2920 F       1  UNL1       -0.1659
@<TRIPOS>BOND
     1     7     8    2
     2     8     9   am
     3     9     1    1
     4     1     2    1
     5     2     3    1
     6     3     4    1
     7     4    26    1
     8    26    27    1
     9    27    28   ar
    10    28    29   ar
    11    29    30   ar
    12    30    32    1
    13    32    33   ar
    14    33    34   ar
    15    34    35   ar
    16    35    38    1
    17    38    39    1
    18    38    40    1
    19    38    41    1
    20    35    36   ar
    21    36    37   ar
    22    30    31   ar
    23     4     5    1
    24     5     6    1
    25     8    10   am
    26    10    13    1
    27    13    20    1
    28    20    21    1
    29    21    22   ar
    30    22    23   ar
    31    23    24   ar
    32    24    25   ar
    33    13    14    1
    34    14    15   ar
    35    15    16   ar
    36    16    17   ar
    37    17    18   ar
    38    18    19   ar
    39     6     1    1
    40    25    21   ar
    41    19    14   ar
    42    31    27   ar
    43    37    32   ar
    44     9    11    1
    45    10    12    1
@<TRIPOS>MOLECULE
*****
 41 45 0 0 0
SMALL
GASTEIGER

@<TRIPOS>ATOM
      1 C          61.8849   86.4133    8.8501 C.3     1  UNL1        0.0758
      2 C          61.7991   87.8108    9.3881 C.3     1  UNL1        0.0370
      3 C          60.7106   88.7298    8.9184 C.3     1  UNL1        0.0741
      4 N          59.7079   88.2512    7.9107 N.3     1  UNL1       -0.2688
      5 C          59.7936   86.8536    7.3727 C.3     1  UNL1        0.0741
      6 C          60.8822   85.9347    7.8424 C.3     1  UNL1        0.0370
      7 O          61.8643   85.3797   11.6664 O.2     1  UNL1       -0.2528
      8 C          62.9632   84.9775   10.7279 C.2     1  UNL1        0.3010
      9 N          62.9735   85.4943    9.3198 N.am    1  UNL1       -0.2905
     10 N          64.0517   84.0585   11.1975 N.am    1  UNL1       -0.2849
     11 H          63.6947   85.2303    8.7038 H       1  UNL1        0.1509
     12 H          64.7729   83.7945   10.5816 H       1  UNL1        0.1513
     13 C          64.0414   83.5418   12.6056 C.3     1  UNL1        0.1181
     14 C          63.1599   82.3853   12.9737 C.ar    1  UNL1       -0.0026
     15 C          63.3278   81.0646   12.2826 C.ar    1  UNL1       -0.0026
     16 C          62.4463   79.9081   12.6506 C.ar    1  UNL1       -0.0003
     17 C          61.3968   80.0723   13.7097 C.ar    1  UNL1       -0.0000
     18 C          61.2288   81.3930   14.4007 C.ar    1  UNL1       -0.0003
     19 C          62.1104   82.5495   14.0327 C.ar    1  UNL1       -0.0026
     20 C          64.9126   84.1814   13.6457 C.3     1  UNL1        0.1317
     21 N          64.3397   85.2110   14.5740 N.ar    1  UNL1       -0.3058
     22 C          63.6531   84.9366   15.8791 C.ar    1  UNL1        0.0981
     23 C          63.2419   86.2517   16.4720 C.ar    1  UNL1        0.1193
     24 N          63.6744   87.3389   15.5333 N.ar    1  UNL1       -0.2223
     25 C          64.3529   86.6956   14.3603 C.ar    1  UNL1        0.1787
     26 C          58.6193   89.1702    7.4411 C.3     1  UNL1        0.1007
     27 C          58.8672   90.1000    6.2905 C.ar    1  UNL1        0.0129
     28 C          57.8330   90.9288    5.5880 C.ar    1  UNL1        0.0176
     29 C          58.5195   91.7054    4.5037 C.ar    1  UNL1        0.0799
     30 N          59.9781   91.3566    4.5361 N.ar    1  UNL1       -0.3038
     31 C          60.1930   90.3644    5.6404 C.ar    1  UNL1        0.0772
     32 C          61.0360   91.9038    3.6243 C.ar    1  UNL1        0.0640
     33 C          62.3985   91.2774    3.5953 C.ar    1  UNL1        0.0175
     34 C          63.4564   91.8246    2.6835 C.ar    1  UNL1        0.0053
     35 C          63.1517   92.9983    1.8007 C.ar    1  UNL1        0.0715
     36 C          61.7891   93.6248    1.8296 C.ar    1  UNL1        0.0053
     37 C          60.7312   93.0776    2.7414 C.ar    1  UNL1        0.0175
     38 C          64.2095   93.5456    0.8889 C.3     1  UNL1        0.4186
     39 F          65.2675   94.0927   -0.0229 F       1  UNL1       -0.1659
     40 F          63.3244   94.7116    0.5618 F       1  UNL1       -0.1659
     41 F          65.0947   92.3795    1.2159 F       1  UNL1       -0.1659
@<TRIPOS>BOND
     1     7     8    2
     2     8     9   am
     3     9     1    1
     4     1     2    1
     5     2     3    1
     6     3     4    1
     7     4    26    1
     8    26    27    1
     9    27    28   ar
    10    28    29   ar
    11    29    30   ar
    12    30    32    1
    13    32    33   ar
    14    33    34   ar
    15    34    35   ar
    16    35    38    1
    17    38    39    1
    18    38    40    1
    19    38    41    1
    20    35    36   ar
    21    36    37   ar
    22    30    31   ar
    23     4     5    1
    24     5     6    1
    25     8    10   am
    26    10    13    1
    27    13    20    1
    28    20    21    1
    29    21    22   ar
    30    22    23   ar
    31    23    24   ar
    32    24    25   ar
    33    13    14    1
    34    14    15   ar
    35    15    16   ar
    36    16    17   ar
    37    17    18   ar
    38    18    19   ar
    39     6     1    1
    40    25    21   ar
    41    19    14   ar
    42    31    27   ar
    43    37    32   ar
    44     9    11    1
    45    10    12    1
@<TRIPOS>MOLECULE
*****
 41 45 0 0 0
SMALL
GASTEIGER

@<TRIPOS>ATOM
      1 C          59.4999   92.3821    4.1807 C.3     1  UNL1        0.0758
      2 C          58.0961   92.0280    4.5729 C.3     1  UNL1        0.0370
      3 C          57.8396   90.8368    5.4476 C.3     1  UNL1        0.0741
      4 N          58.9870   89.9997    5.9302 N.3     1  UNL1       -0.2688
      5 C          60.3908   90.3538    5.5381 C.3     1  UNL1        0.0741
      6 C          60.6473   91.5450    4.6633 C.3     1  UNL1        0.0370
      7 O          59.8358   92.0252    1.2210 O.2     1  UNL1       -0.2528
      8 C          59.9244   93.3949    1.8261 C.2     1  UNL1        0.3010
      9 N          59.7565   93.5734    3.3060 N.am    1  UNL1       -0.2905
     10 N          60.1809   94.5862    0.9513 N.am    1  UNL1       -0.2849
     11 H          59.8146   94.4723    3.7031 H       1  UNL1        0.1509
     12 H          60.2390   95.4851    1.3485 H       1  UNL1        0.1513
     13 C          60.3488   94.4077   -0.5285 C.3     1  UNL1        0.1181
     14 C          59.1618   94.0754   -1.3832 C.ar    1  UNL1       -0.0026
     15 C          59.3480   93.3125   -2.6613 C.ar    1  UNL1       -0.0026
     16 C          58.1610   92.9802   -3.5161 C.ar    1  UNL1       -0.0003
     17 C          56.7879   93.4107   -3.0928 C.ar    1  UNL1       -0.0000
     18 C          56.6017   94.1736   -1.8149 C.ar    1  UNL1       -0.0003
     19 C          57.7887   94.5060   -0.9600 C.ar    1  UNL1       -0.0026
     20 C          61.7036   94.5616   -1.1535 C.3     1  UNL1        0.1317
     21 N          62.9186   94.7021   -0.2852 N.ar    1  UNL1       -0.3058
     22 C          63.6293   95.9833    0.0361 C.ar    1  UNL1        0.0981
     23 C          64.7862   95.6591    0.9342 C.ar    1  UNL1        0.1193
     24 N          64.7905   94.1774    1.1679 N.ar    1  UNL1       -0.2223
     25 C          63.6363   93.5859    0.4142 C.ar    1  UNL1        0.1787
     26 C          58.7305   88.8084    6.8050 C.3     1  UNL1        0.1007
     27 C          59.7043   88.4496    7.8880 C.ar    1  UNL1        0.0129
     28 C          60.2919   89.3946    8.8938 C.ar    1  UNL1        0.0176
     29 C          61.2122   88.6118    9.7828 C.ar    1  UNL1        0.0799
     30 N          61.1934   87.1830    9.3264 N.ar    1  UNL1       -0.3038
     31 C          60.2614   87.0828    8.1553 C.ar    1  UNL1        0.0772
     32 C          61.9702   86.0530    9.9342 C.ar    1  UNL1        0.0640
     33 C          62.8055   85.1628    9.0627 C.ar    1  UNL1        0.0175
     34 C          63.5823   84.0327    9.6706 C.ar    1  UNL1        0.0053
     35 C          63.5237   83.7928   11.1500 C.ar    1  UNL1        0.0715
     36 C          62.6884   84.6830   12.0217 C.ar    1  UNL1        0.0053
     37 C          61.9116   85.8131   11.4138 C.ar    1  UNL1        0.0175
     38 C          64.3005   82.6627   11.7579 C.3     1  UNL1        0.4186
     39 F          65.0773   81.5327   12.3659 F       1  UNL1       -0.1659
     40 F          63.9966   81.8104   10.5616 F       1  UNL1       -0.1659
     41 F          64.6044   83.5151   12.9543 F       1  UNL1       -0.1659
@<TRIPOS>BOND
     1     7     8    2
     2     8     9   am
     3     9     1    1
     4     1     2    1
     5     2     3    1
     6     3     4    1
     7     4    26    1
     8    26    27    1
     9    27    28   ar
    10    28    29   ar
    11    29    30   ar
    12    30    32    1
    13    32    33   ar
    14    33    34   ar
    15    34    35   ar
    16    35    38    1
    17    38    39    1
    18    38    40    1
    19    38    41    1
    20    35    36   ar
    21    36    37   ar
    22    30    31   ar
    23     4     5    1
    24     5     6    1
    25     8    10   am
    26    10    13    1
    27    13    20    1
    28    20    21    1
    29    21    22   ar
    30    22    23   ar
    31    23    24   ar
    32    24    25   ar
    33    13    14    1
    34    14    15   ar
    35    15    16   ar
    36    16    17   ar
    37    17    18   ar
    38    18    19   ar
    39     6     1    1
    40    25    21   ar
    41    19    14   ar
    42    31    27   ar
    43    37    32   ar
    44     9    11    1
    45    10    12    1
@<TRIPOS>MOLECULE
*****
 41 45 0 0 0
SMALL
GASTEIGER

@<TRIPOS>ATOM
      1 C          61.6435   88.1178   10.1440 C.3     1  UNL1        0.0758
      2 C          61.2862   87.0511    9.1519 C.3     1  UNL1        0.0370
      3 C          60.3096   87.3463    8.0523 C.3     1  UNL1        0.0741
      4 N          59.6902   88.7082    7.9450 N.3     1  UNL1       -0.2688
      5 C          60.0475   89.7750    8.9371 C.3     1  UNL1        0.0741
      6 C          61.0241   89.4797   10.0367 C.3     1  UNL1        0.0370
      7 O          61.6981   85.3995   11.4121 O.2     1  UNL1       -0.2528
      8 C          62.6475   86.4635   11.8776 C.2     1  UNL1        0.3010
      9 N          62.6201   87.8226   11.2436 N.am    1  UNL1       -0.2905
     10 N          63.6242   86.1683   12.9772 N.am    1  UNL1       -0.2849
     11 H          63.2432   88.5210   11.5492 H       1  UNL1        0.1509
     12 H          64.2472   86.8667   13.2828 H       1  UNL1        0.1513
     13 C          63.6515   84.8092   13.6112 C.3     1  UNL1        0.1181
     14 C          63.4809   83.5830   12.7643 C.ar    1  UNL1       -0.0026
     15 C          62.5387   82.4985   13.1958 C.ar    1  UNL1       -0.0026
     16 C          62.3681   81.2723   12.3489 C.ar    1  UNL1       -0.0003
     17 C          63.1397   81.1306   11.0704 C.ar    1  UNL1       -0.0000
     18 C          64.0819   82.2150   10.6389 C.ar    1  UNL1       -0.0003
     19 C          64.2525   83.4413   11.4858 C.ar    1  UNL1       -0.0026
     20 C          63.8494   84.6763   15.0922 C.3     1  UNL1        0.1317
     21 N          63.3441   85.7451   16.0153 N.ar    1  UNL1       -0.3058
     22 C          63.7659   87.1846   16.0120 C.ar    1  UNL1        0.0981
     23 C          63.0108   87.8913   17.0984 C.ar    1  UNL1        0.1193
     24 N          62.1223   86.8886   17.7732 N.ar    1  UNL1       -0.2223
     25 C          62.3283   85.5622   17.1038 C.ar    1  UNL1        0.1787
     26 C          58.7135   89.0034    6.8454 C.3     1  UNL1        0.1007
     27 C          58.9870   90.1169    5.8782 C.ar    1  UNL1        0.0129
     28 C          58.0192   91.1876    5.4699 C.ar    1  UNL1        0.0176
     29 C          58.7103   92.0876    4.4889 C.ar    1  UNL1        0.0799
     30 N          60.1054   91.5731    4.2910 N.ar    1  UNL1       -0.3038
     31 C          60.2763   90.3551    5.1496 C.ar    1  UNL1        0.0772
     32 C          61.1465   92.1714    3.3922 C.ar    1  UNL1        0.0640
     33 C          60.7990   93.3363    2.5135 C.ar    1  UNL1        0.0175
     34 C          61.8402   93.9347    1.6147 C.ar    1  UNL1        0.0053
     35 C          63.2289   93.3682    1.5946 C.ar    1  UNL1        0.0715
     36 C          63.5765   92.2032    2.4733 C.ar    1  UNL1        0.0053
     37 C          62.5353   91.6049    3.3721 C.ar    1  UNL1        0.0175
     38 C          64.2701   93.9665    0.6958 C.3     1  UNL1        0.4186
     39 F          65.3113   94.5650   -0.2031 F       1  UNL1       -0.1659
     40 F          65.0948   92.7199    0.8212 F       1  UNL1       -0.1659
     41 F          63.4454   95.2133    0.5703 F       1  UNL1       -0.1659
@<TRIPOS>BOND
     1     7     8    2
     2     8     9   am
     3     9     1    1
     4     1     2    1
     5     2     3    1
     6     3     4    1
     7     4    26    1
     8    26    27    1
     9    27    28   ar
    10    28    29   ar
    11    29    30   ar
    12    30    32    1
    13    32    33   ar
    14    33    34   ar
    15    34    35   ar
    16    35    38    1
    17    38    39    1
    18    38    40    1
    19    38    41    1
    20    35    36   ar
    21    36    37   ar
    22    30    31   ar
    23     4     5    1
    24     5     6    1
    25     8    10   am
    26    10    13    1
    27    13    20    1
    28    20    21    1
    29    21    22   ar
    30    22    23   ar
    31    23    24   ar
    32    24    25   ar
    33    13    14    1
    34    14    15   ar
    35    15    16   ar
    36    16    17   ar
    37    17    18   ar
    38    18    19   ar
    39     6     1    1
    40    25    21   ar
    41    19    14   ar
    42    31    27   ar
    43    37    32   ar
    44     9    11    1
    45    10    12    1
@<TRIPOS>MOLECULE
*****
 41 45 0 0 0
SMALL
GASTEIGER

@<TRIPOS>ATOM
      1 C          61.7477   88.2313   10.1408 C.3     1  UNL1        0.0758
      2 C          61.2054   89.6167    9.9500 C.3     1  UNL1        0.0370
      3 C          60.2037   89.8874    8.8669 C.3     1  UNL1        0.0741
      4 N          59.7441   88.7727    7.9746 N.3     1  UNL1       -0.2688
      5 C          60.2863   87.3872    8.1654 C.3     1  UNL1        0.0741
      6 C          61.2881   87.1165    9.2485 C.3     1  UNL1        0.0370
      7 O          62.1257   90.2104   12.3634 O.2     1  UNL1       -0.2528
      8 C          62.9385   88.9501   12.3352 C.2     1  UNL1        0.3010
      9 N          62.7495   87.9605   11.2239 N.am    1  UNL1       -0.2905
     10 N          63.9404   88.6793   13.4183 N.am    1  UNL1       -0.2849
     11 H          63.2830   87.1333   11.2054 H       1  UNL1        0.1509
     12 H          64.4738   87.8521   13.3998 H       1  UNL1        0.1513
     13 C          64.1293   89.6689   14.5296 C.3     1  UNL1        0.1181
     14 C          64.9121   90.9257   14.2895 C.ar    1  UNL1       -0.0026
     15 C          65.5937   91.6149   15.4343 C.ar    1  UNL1       -0.0026
     16 C          66.3765   92.8717   15.1943 C.ar    1  UNL1       -0.0003
     17 C          66.4777   93.4394   13.8095 C.ar    1  UNL1       -0.0000
     18 C          65.7962   92.7502   12.6648 C.ar    1  UNL1       -0.0003
     19 C          65.0133   91.4933   12.9048 C.ar    1  UNL1       -0.0026
     20 C          63.5355   89.4016   15.8808 C.3     1  UNL1        0.1317
     21 N          63.3691   87.9904   16.3612 N.ar    1  UNL1       -0.3058
     22 C          63.9465   86.7656   15.7160 C.ar    1  UNL1        0.0981
     23 C          63.5303   85.5745   16.5270 C.ar    1  UNL1        0.1193
     24 N          62.6955   86.0631   17.6736 N.ar    1  UNL1       -0.2223
     25 C          62.5959   87.5563   17.5710 C.ar    1  UNL1        0.1787
     26 C          58.7423   89.0434    6.8915 C.3     1  UNL1        0.1007
     27 C          58.9984   90.1273    5.8868 C.ar    1  UNL1        0.0129
     28 C          57.9981   91.1344    5.4019 C.ar    1  UNL1        0.0176
     29 C          58.6813   92.0240    4.4061 C.ar    1  UNL1        0.0799
     30 N          60.1040   91.5667    4.2754 N.ar    1  UNL1       -0.3038
     31 C          60.2999   90.3946    5.1906 C.ar    1  UNL1        0.0772
     32 C          61.1474   92.1749    3.3859 C.ar    1  UNL1        0.0640
     33 C          60.8022   93.3496    2.5194 C.ar    1  UNL1        0.0175
     34 C          61.8456   93.9578    1.6298 C.ar    1  UNL1        0.0053
     35 C          63.2343   93.3912    1.6067 C.ar    1  UNL1        0.0715
     36 C          63.5796   92.2165    2.4732 C.ar    1  UNL1        0.0053
     37 C          62.5361   91.6083    3.3627 C.ar    1  UNL1        0.0175
     38 C          64.2777   93.9994    0.7171 C.3     1  UNL1        0.4186
     39 F          65.3212   94.6075   -0.1725 F       1  UNL1       -0.1659
     40 F          63.5093   95.2874    0.6964 F       1  UNL1       -0.1659
     41 F          65.0462   92.7113    0.7378 F       1  UNL1       -0.1659
@<TRIPOS>BOND
     1     7     8    2
     2     8     9   am
     3     9     1    1
     4     1     2    1
     5     2     3    1
     6     3     4    1
     7     4    26    1
     8    26    27    1
     9    27    28   ar
    10    28    29   ar
    11    29    30   ar
    12    30    32    1
    13    32    33   ar
    14    33    34   ar
    15    34    35   ar
    16    35    38    1
    17    38    39    1
    18    38    40    1
    19    38    41    1
    20    35    36   ar
    21    36    37   ar
    22    30    31   ar
    23     4     5    1
    24     5     6    1
    25     8    10   am
    26    10    13    1
    27    13    20    1
    28    20    21    1
    29    21    22   ar
    30    22    23   ar
    31    23    24   ar
    32    24    25   ar
    33    13    14    1
    34    14    15   ar
    35    15    16   ar
    36    16    17   ar
    37    17    18   ar
    38    18    19   ar
    39     6     1    1
    40    25    21   ar
    41    19    14   ar
    42    31    27   ar
    43    37    32   ar
    44     9    11    1
    45    10    12    1
@<TRIPOS>MOLECULE
*****
 41 45 0 0 0
SMALL
GASTEIGER

@<TRIPOS>ATOM
      1 C          61.9397   88.4147    9.9304 C.3     1  UNL1        0.0758
      2 C          61.3332   87.2916    9.1426 C.3     1  UNL1        0.0370
      3 C          60.2523   87.5755    8.1421 C.3     1  UNL1        0.0741
      4 N          59.7779   88.9825    7.9295 N.3     1  UNL1       -0.2688
      5 C          60.3844   90.1056    8.7173 C.3     1  UNL1        0.0741
      6 C          61.4653   89.8217    9.7178 C.3     1  UNL1        0.0370
      7 O          61.7309   89.5097   12.7156 O.2     1  UNL1       -0.2528
      8 C          62.9163   88.6783   12.3235 C.2     1  UNL1        0.3010
      9 N          63.0207   88.1308   10.9309 N.am    1  UNL1       -0.2905
     10 N          63.9972   88.3944   13.3240 N.am    1  UNL1       -0.2849
     11 H          63.7987   87.5851   10.6736 H       1  UNL1        0.1509
     12 H          64.7752   87.8487   13.0667 H       1  UNL1        0.1513
     13 C          63.8928   88.9419   14.7166 C.3     1  UNL1        0.1181
     14 C          63.5529   88.0295   15.8576 C.ar    1  UNL1       -0.0026
     15 C          63.7102   86.5456   15.7039 C.ar    1  UNL1       -0.0026
     16 C          63.3703   85.6333   16.8449 C.ar    1  UNL1       -0.0003
     17 C          62.8731   86.2046   18.1397 C.ar    1  UNL1       -0.0000
     18 C          62.7158   87.6884   18.2934 C.ar    1  UNL1       -0.0003
     19 C          63.0557   88.6009   17.1523 C.ar    1  UNL1       -0.0026
     20 C          64.1284   90.4018   14.9682 C.3     1  UNL1        0.1317
     21 N          65.1414   91.1494   14.1529 N.ar    1  UNL1       -0.3058
     22 C          66.5890   91.3349   14.4997 C.ar    1  UNL1        0.0981
     23 C          67.2270   92.1430   13.4089 C.ar    1  UNL1        0.1193
     24 N          66.1738   92.4569   12.3879 N.ar    1  UNL1       -0.2223
     25 C          64.8849   91.8429   12.8478 C.ar    1  UNL1        0.1787
     26 C          58.6969   89.2664    6.9289 C.3     1  UNL1        0.1007
     27 C          58.9157   90.2960    5.8603 C.ar    1  UNL1        0.0129
     28 C          57.8716   91.2082    5.2878 C.ar    1  UNL1        0.0176
     29 C          58.5276   92.0701    4.2502 C.ar    1  UNL1        0.0799
     30 N          59.9772   91.6905    4.1812 N.ar    1  UNL1       -0.3038
     31 C          60.2170   90.5941    5.1763 C.ar    1  UNL1        0.0772
     32 C          61.0062   92.3004    3.2761 C.ar    1  UNL1        0.0640
     33 C          60.6457   93.4735    2.4138 C.ar    1  UNL1        0.0175
     34 C          61.6747   94.0833    1.5087 C.ar    1  UNL1        0.0053
     35 C          63.0642   93.5201    1.4659 C.ar    1  UNL1        0.0715
     36 C          63.4247   92.3470    2.3283 C.ar    1  UNL1        0.0053
     37 C          62.3957   91.7371    3.2334 C.ar    1  UNL1        0.0175
     38 C          64.0932   94.1299    0.5609 C.3     1  UNL1        0.4186
     39 F          65.1222   94.7397   -0.3443 F       1  UNL1       -0.1659
     40 F          63.3013   95.4031    0.5184 F       1  UNL1       -0.1659
     41 F          64.8851   92.8567    0.6032 F       1  UNL1       -0.1659
@<TRIPOS>BOND
     1     7     8    2
     2     8     9   am
     3     9     1    1
     4     1     2    1
     5     2     3    1
     6     3     4    1
     7     4    26    1
     8    26    27    1
     9    27    28   ar
    10    28    29   ar
    11    29    30   ar
    12    30    32    1
    13    32    33   ar
    14    33    34   ar
    15    34    35   ar
    16    35    38    1
    17    38    39    1
    18    38    40    1
    19    38    41    1
    20    35    36   ar
    21    36    37   ar
    22    30    31   ar
    23     4     5    1
    24     5     6    1
    25     8    10   am
    26    10    13    1
    27    13    20    1
    28    20    21    1
    29    21    22   ar
    30    22    23   ar
    31    23    24   ar
    32    24    25   ar
    33    13    14    1
    34    14    15   ar
    35    15    16   ar
    36    16    17   ar
    37    17    18   ar
    38    18    19   ar
    39     6     1    1
    40    25    21   ar
    41    19    14   ar
    42    31    27   ar
    43    37    32   ar
    44     9    11    1
    45    10    12    1
@<TRIPOS>MOLECULE
*****
 41 45 0 0 0
SMALL
GASTEIGER

@<TRIPOS>ATOM
      1 C          61.9427   89.4716   10.8738 C.3     1  UNL1        0.0758
      2 C          62.1254   88.2779    9.9841 C.3     1  UNL1        0.0370
      3 C          61.1929   88.0522    8.8311 C.3     1  UNL1        0.0741
      4 N          60.0778   89.0203    8.5677 N.3     1  UNL1       -0.2688
      5 C          59.8951   90.2140    9.4575 C.3     1  UNL1        0.0741
      6 C          60.8275   90.4396   10.6105 C.3     1  UNL1        0.0370
      7 O          63.8563   91.7815   10.8256 O.2     1  UNL1       -0.2528
      8 C          63.8319   90.8522   12.0028 C.2     1  UNL1        0.3010
      9 N          62.8752   89.6973   12.0270 N.am    1  UNL1       -0.2905
     10 N          64.7644   91.0779   13.1560 N.am    1  UNL1       -0.2849
     11 H          62.8592   89.0874   12.7996 H       1  UNL1        0.1509
     12 H          64.7484   90.4680   13.9286 H       1  UNL1        0.1513
     13 C          65.7212   92.2329   13.1318 C.3     1  UNL1        0.1181
     14 C          66.8061   92.3297   14.1631 C.ar    1  UNL1       -0.0026
     15 C          66.4746   92.7554   15.5628 C.ar    1  UNL1       -0.0026
     16 C          67.5595   92.8522   16.5941 C.ar    1  UNL1       -0.0003
     17 C          68.9759   92.5233   16.2258 C.ar    1  UNL1       -0.0000
     18 C          69.3074   92.0976   14.8263 C.ar    1  UNL1       -0.0003
     19 C          68.2225   92.0007   13.7949 C.ar    1  UNL1       -0.0026
     20 C          65.5931   93.2910   12.0764 C.3     1  UNL1        0.1317
     21 N          66.6525   93.4329   11.0241 N.ar    1  UNL1       -0.3058
     22 C          67.3942   92.3093   10.3627 C.ar    1  UNL1        0.0981
     23 C          68.3564   92.9052    9.3782 C.ar    1  UNL1        0.1193
     24 N          68.2093   94.3970    9.4312 N.ar    1  UNL1       -0.2223
     25 C          67.1563   94.7231   10.4484 C.ar    1  UNL1        0.1787
     26 C          59.1453   88.7946    7.4146 C.3     1  UNL1        0.1007
     27 C          59.0497   89.8125    6.3171 C.ar    1  UNL1        0.0129
     28 C          57.7891   90.4516    5.8148 C.ar    1  UNL1        0.0176
     29 C          58.1582   91.4041    4.7163 C.ar    1  UNL1        0.0799
     30 N          59.6469   91.3536    4.5398 N.ar    1  UNL1       -0.3038
     31 C          60.1979   90.3699    5.5291 C.ar    1  UNL1        0.0772
     32 C          60.4446   92.1475    3.5480 C.ar    1  UNL1        0.0640
     33 C          59.7772   93.2123    2.7292 C.ar    1  UNL1        0.0175
     34 C          60.5749   94.0061    1.7374 C.ar    1  UNL1        0.0053
     35 C          62.0400   93.7351    1.5646 C.ar    1  UNL1        0.0715
     36 C          62.7075   92.6703    2.3835 C.ar    1  UNL1        0.0053
     37 C          61.9098   91.8764    3.3752 C.ar    1  UNL1        0.0175
     38 C          62.8376   94.5289    0.5729 C.3     1  UNL1        0.4186
     39 F          63.6353   95.3228   -0.4188 F       1  UNL1       -0.1659
     40 F          62.6442   93.4474   -0.4484 F       1  UNL1       -0.1659
     41 F          63.0311   95.6105    1.5941 F       1  UNL1       -0.1659
@<TRIPOS>BOND
     1     7     8    2
     2     8     9   am
     3     9     1    1
     4     1     2    1
     5     2     3    1
     6     3     4    1
     7     4    26    1
     8    26    27    1
     9    27    28   ar
    10    28    29   ar
    11    29    30   ar
    12    30    32    1
    13    32    33   ar
    14    33    34   ar
    15    34    35   ar
    16    35    38    1
    17    38    39    1
    18    38    40    1
    19    38    41    1
    20    35    36   ar
    21    36    37   ar
    22    30    31   ar
    23     4     5    1
    24     5     6    1
    25     8    10   am
    26    10    13    1
    27    13    20    1
    28    20    21    1
    29    21    22   ar
    30    22    23   ar
    31    23    24   ar
    32    24    25   ar
    33    13    14    1
    34    14    15   ar
    35    15    16   ar
    36    16    17   ar
    37    17    18   ar
    38    18    19   ar
    39     6     1    1
    40    25    21   ar
    41    19    14   ar
    42    31    27   ar
    43    37    32   ar
    44     9    11    1
    45    10    12    1
@<TRIPOS>MOLECULE
*****
 41 45 0 0 0
SMALL
GASTEIGER

@<TRIPOS>ATOM
      1 C          61.5363   86.7096    8.9965 C.3     1  UNL1        0.0758
      2 C          60.6143   86.0658    8.0039 C.3     1  UNL1        0.0370
      3 C          59.5465   86.8794    7.3348 C.3     1  UNL1        0.0741
      4 N          59.4006   88.3368    7.6584 N.3     1  UNL1       -0.2688
      5 C          60.3226   88.9805    8.6511 C.3     1  UNL1        0.0741
      6 C          61.3904   88.1669    9.3202 C.3     1  UNL1        0.0370
      7 O          61.2411   85.9255   11.8772 O.2     1  UNL1       -0.2528
      8 C          62.4566   85.5040   11.1060 C.2     1  UNL1        0.3010
      9 N          62.6042   85.8959    9.6657 N.am    1  UNL1       -0.2905
     10 N          63.5245   84.6903   11.7751 N.am    1  UNL1       -0.2849
     11 H          63.4020   85.6192    9.1595 H       1  UNL1        0.1509
     12 H          64.3223   84.4136   11.2689 H       1  UNL1        0.1513
     13 C          63.3769   84.2984   13.2154 C.3     1  UNL1        0.1181
     14 C          63.4701   85.3410   14.2897 C.ar    1  UNL1       -0.0026
     15 C          62.9742   85.0392   15.6729 C.ar    1  UNL1       -0.0026
     16 C          63.0673   86.0818   16.7472 C.ar    1  UNL1       -0.0003
     17 C          63.6565   87.4262   16.4385 C.ar    1  UNL1       -0.0000
     18 C          64.1524   87.7281   15.0554 C.ar    1  UNL1       -0.0003
     19 C          64.0592   86.6855   13.9810 C.ar    1  UNL1       -0.0026
     20 C          63.1361   82.8638   13.5814 C.3     1  UNL1        0.1317
     21 N          63.0780   81.8159   12.5097 N.ar    1  UNL1       -0.3058
     22 C          63.4554   82.0051   11.0703 C.ar    1  UNL1        0.0981
     23 C          63.2430   80.7010   10.3602 C.ar    1  UNL1        0.1193
     24 N          62.7344   79.7058   11.3607 N.ar    1  UNL1       -0.2223
     25 C          62.6325   80.3949   12.6892 C.ar    1  UNL1        0.1787
     26 C          58.3327   89.1504    6.9893 C.3     1  UNL1        0.1007
     27 C          58.7054   90.1761    5.9603 C.ar    1  UNL1        0.0129
     28 C          57.7817   91.1872    5.3484 C.ar    1  UNL1        0.0176
     29 C          58.5727   92.0069    4.3725 C.ar    1  UNL1        0.0799
     30 N          59.9853   91.5023    4.3811 N.ar    1  UNL1       -0.3038
     31 C          60.0673   90.3709    5.3625 C.ar    1  UNL1        0.0772
     32 C          61.1171   92.0356    3.5538 C.ar    1  UNL1        0.0640
     33 C          62.4620   91.3737    3.6072 C.ar    1  UNL1        0.0175
     34 C          63.5939   91.9070    2.7798 C.ar    1  UNL1        0.0053
     35 C          63.3808   93.1022    1.8990 C.ar    1  UNL1        0.0715
     36 C          62.0358   93.7643    1.8456 C.ar    1  UNL1        0.0053
     37 C          60.9040   93.2310    2.6730 C.ar    1  UNL1        0.0175
     38 C          64.5126   93.6355    1.0717 C.3     1  UNL1        0.4186
     39 F          65.6445   94.1688    0.2443 F       1  UNL1       -0.1659
     40 F          63.8892   94.9996    1.0981 F       1  UNL1       -0.1659
     41 F          65.1361   92.2714    1.0453 F       1  UNL1       -0.1659
@<TRIPOS>BOND
     1     7     8    2
     2     8     9   am
     3     9     1    1
     4     1     2    1
     5     2     3    1
     6     3     4    1
     7     4    26    1
     8    26    27    1
     9    27    28   ar
    10    28    29   ar
    11    29    30   ar
    12    30    32    1
    13    32    33   ar
    14    33    34   ar
    15    34    35   ar
    16    35    38    1
    17    38    39    1
    18    38    40    1
    19    38    41    1
    20    35    36   ar
    21    36    37   ar
    22    30    31   ar
    23     4     5    1
    24     5     6    1
    25     8    10   am
    26    10    13    1
    27    13    20    1
    28    20    21    1
    29    21    22   ar
    30    22    23   ar
    31    23    24   ar
    32    24    25   ar
    33    13    14    1
    34    14    15   ar
    35    15    16   ar
    36    16    17   ar
    37    17    18   ar
    38    18    19   ar
    39     6     1    1
    40    25    21   ar
    41    19    14   ar
    42    31    27   ar
    43    37    32   ar
    44     9    11    1
    45    10    12    1
