@<TRIPOS>MOLECULE
*****
 33 37 0 0 0
SMALL
GASTEIGER

@<TRIPOS>ATOM
      1 C          63.1138   94.9743   -0.9188 C.3     1  UNL1        0.1272
      2 C          64.3066   95.6930   -1.4761 C.2     1  UNL1        0.0260
      3 C          64.8729   96.3278   -2.7116 C.2     1  UNL1        0.0757
      4 N          66.2366   96.8559   -2.3779 N.2     1  UNL1       -0.1569
      5 N          66.5132   96.5476   -0.9362 N.2     1  UNL1       -0.1631
      6 C          65.3203   95.8289   -0.3789 C.3     1  UNL1        0.2225
      7 C          64.7541   95.1941    0.8566 C.2     1  UNL1        0.2581
      8 O          65.4324   95.1034    2.1914 O.2     1  UNL1       -0.2720
      9 N          63.3903   94.6659    0.5230 N.am    1  UNL1       -0.2508
     10 C          61.8875   93.5331   -2.6990 C.ar    1  UNL1        0.1366
     11 C          60.6375   93.1840   -3.4512 C.ar    1  UNL1        0.0366
     12 C          59.3640   93.9270   -3.1755 C.ar    1  UNL1        0.0031
     13 C          59.3404   95.0191   -2.1475 C.ar    1  UNL1       -0.0001
     14 C          60.5904   95.3682   -1.3952 C.ar    1  UNL1        0.0007
     15 C          61.8639   94.6252   -1.6710 C.ar    1  UNL1        0.0340
     16 C          63.7616   92.8154   -4.3491 C.3     1  UNL1        0.2525
     17 O          63.1610   92.7901   -2.9748 O.3     1  UNL1       -0.4717
     18 C          62.4655   93.9544    1.4654 C.ar    1  UNL1        0.0544
     19 C          61.1016   94.5136    1.7430 C.ar    1  UNL1        0.0150
     20 C          60.1768   93.8021    2.6855 C.ar    1  UNL1        0.0044
     21 C          60.6159   92.5312    3.3506 C.ar    1  UNL1        0.0373
     22 C          61.9798   91.9720    3.0731 C.ar    1  UNL1        0.0044
     23 C          62.9046   92.6836    2.1305 C.ar    1  UNL1        0.0150
     24 C          59.6911   91.8197    4.2931 C.ar    1  UNL1        0.1765
     25 C          60.0634   90.6936    5.2114 C.ar    1  UNL1        0.0581
     26 C          58.8340   90.2872    5.9687 C.ar    1  UNL1        0.1011
     27 C          58.7512   89.1973    6.9959 C.3     1  UNL1        0.0557
     28 N          57.7019   91.1621    5.5184 N.ar    1  UNL1       -0.0813
     29 O          58.2316   92.1093    4.4828 O.2     1  UNL1       -0.3537
     30 C          64.1946   96.4185   -4.0464 C.3     1  UNL1        0.0367
     31 C          65.4614   95.9810   -4.7199 C.3     1  UNL1        0.0060
     32 C          62.9277   96.8559   -3.3728 C.3     1  UNL1        0.0060
     33 C          63.5162   96.5091   -5.3812 C.3     1  UNL1        0.0060
@<TRIPOS>BOND
     1    16    17    1
     2    17    10    1
     3    10    11   ar
     4    11    12   ar
     5    12    13   ar
     6    13    14   ar
     7    14    15   ar
     8    15     1    1
     9     1     2    1
    10     2     3    2
    11     3    30    1
    12    30    31    1
    13    30    32    1
    14    30    33    1
    15     3     4    1
    16     4     5    2
    17     5     6    1
    18     6     7    1
    19     7     8    2
    20     7     9   am
    21     9    18    1
    22    18    19   ar
    23    19    20   ar
    24    20    21   ar
    25    21    24    1
    26    24    25   ar
    27    25    26   ar
    28    26    27    1
    29    26    28   ar
    30    28    29   ar
    31    21    22   ar
    32    22    23   ar
    33    15    10   ar
    34     9     1    1
    35    23    18   ar
    36     6     2    1
    37    29    24   ar
@<TRIPOS>MOLECULE
*****
 33 37 0 0 0
SMALL
GASTEIGER

@<TRIPOS>ATOM
      1 C          61.1169   95.0788   -2.2938 C.3     1  UNL1        0.1272
      2 C          62.4849   94.8723   -2.8733 C.2     1  UNL1        0.0260
      3 C          63.9432   94.7731   -2.5364 C.2     1  UNL1        0.0757
      4 N          64.6983   94.5381   -3.8110 N.2     1  UNL1       -0.1569
      5 N          63.7068   94.4922   -4.9356 N.2     1  UNL1       -0.1631
      6 C          62.3387   94.6987   -4.3560 C.3     1  UNL1        0.2225
      7 C          60.8804   94.7979   -4.6929 C.2     1  UNL1        0.2581
      8 O          60.2823   94.6825   -6.0637 O.2     1  UNL1       -0.2720
      9 N          60.1252   95.0328   -3.4183 N.am    1  UNL1       -0.2508
     10 C          60.2062   94.1783   -0.0332 C.ar    1  UNL1        0.1366
     11 C          59.8860   94.3931    1.4164 C.ar    1  UNL1        0.0366
     12 C          60.1562   95.7232    2.0551 C.ar    1  UNL1        0.0031
     13 C          60.7466   96.8385    1.2442 C.ar    1  UNL1       -0.0001
     14 C          61.0668   96.6236   -0.2055 C.ar    1  UNL1        0.0007
     15 C          60.7966   95.2936   -0.8442 C.ar    1  UNL1        0.0340
     16 C          60.5552   91.6048   -0.1057 C.3     1  UNL1        0.2525
     17 O          59.9361   92.8482   -0.6719 O.3     1  UNL1       -0.4717
     18 C          58.6394   95.1936   -3.2907 C.ar    1  UNL1        0.0544
     19 C          58.0418   96.5630   -3.1577 C.ar    1  UNL1        0.0150
     20 C          56.5560   96.7237   -3.0301 C.ar    1  UNL1        0.0044
     21 C          55.6676   95.5150   -3.0355 C.ar    1  UNL1        0.0373
     22 C          56.2651   94.1456   -3.1685 C.ar    1  UNL1        0.0044
     23 C          57.7510   93.9850   -3.2961 C.ar    1  UNL1        0.0150
     24 C          54.1817   95.6758   -2.9079 C.ar    1  UNL1        0.1765
     25 C          53.2476   96.1283   -3.9909 C.ar    1  UNL1        0.0581
     26 C          51.8576   96.1445   -3.4273 C.ar    1  UNL1        0.1011
     27 C          50.6114   96.5347   -4.1653 C.3     1  UNL1        0.0557
     28 N          51.9327   95.7019   -1.9960 N.ar    1  UNL1       -0.0813
     29 O          53.3690   95.4123   -1.6750 O.2     1  UNL1       -0.3537
     30 C          64.5413   94.8885   -1.1657 C.3     1  UNL1        0.0367
     31 C          63.9895   93.5394   -0.8113 C.3     1  UNL1        0.0060
     32 C          65.0931   96.2375   -1.5201 C.3     1  UNL1        0.0060
     33 C          65.1394   95.0039    0.2050 C.3     1  UNL1        0.0060
@<TRIPOS>BOND
     1    16    17    1
     2    17    10    1
     3    10    11   ar
     4    11    12   ar
     5    12    13   ar
     6    13    14   ar
     7    14    15   ar
     8    15     1    1
     9     1     2    1
    10     2     3    2
    11     3    30    1
    12    30    31    1
    13    30    32    1
    14    30    33    1
    15     3     4    1
    16     4     5    2
    17     5     6    1
    18     6     7    1
    19     7     8    2
    20     7     9   am
    21     9    18    1
    22    18    19   ar
    23    19    20   ar
    24    20    21   ar
    25    21    24    1
    26    24    25   ar
    27    25    26   ar
    28    26    27    1
    29    26    28   ar
    30    28    29   ar
    31    21    22   ar
    32    22    23   ar
    33    15    10   ar
    34     9     1    1
    35    23    18   ar
    36     6     2    1
    37    29    24   ar
@<TRIPOS>MOLECULE
*****
 33 37 0 0 0
SMALL
GASTEIGER

@<TRIPOS>ATOM
      1 C          61.2591   94.0437    0.4777 C.3     1  UNL1        0.1272
      2 C          62.1135   93.4172    1.5395 C.2     1  UNL1        0.0260
      3 C          63.5269   93.2278    2.0047 C.2     1  UNL1        0.0757
      4 N          63.4959   92.4035    3.2576 N.2     1  UNL1       -0.1569
      5 N          62.0634   92.0835    3.5667 N.2     1  UNL1       -0.1631
      6 C          61.2090   92.7099    2.5048 C.3     1  UNL1        0.2225
      7 C          59.7956   92.8993    2.0396 C.2     1  UNL1        0.2581
      8 O          58.5670   92.3593    2.7095 O.2     1  UNL1       -0.2720
      9 N          59.8265   93.7236    0.7867 N.am    1  UNL1       -0.2508
     10 C          61.3743   94.4528   -2.0854 C.ar    1  UNL1        0.1366
     11 C          61.8661   95.2580   -3.2516 C.ar    1  UNL1        0.0366
     12 C          62.7343   96.4592   -3.0208 C.ar    1  UNL1        0.0031
     13 C          63.1107   96.8553   -1.6238 C.ar    1  UNL1       -0.0001
     14 C          62.6190   96.0500   -0.4577 C.ar    1  UNL1        0.0007
     15 C          61.7508   94.8488   -0.6885 C.ar    1  UNL1        0.0340
     16 C          59.4563   93.2795   -3.3873 C.3     1  UNL1        0.2525
     17 O          60.5061   93.2515   -2.3162 O.3     1  UNL1       -0.4717
     18 C          58.6343   94.1526   -0.0161 C.ar    1  UNL1        0.0544
     19 C          57.6194   93.1378   -0.4526 C.ar    1  UNL1        0.0150
     20 C          56.4273   93.5667   -1.2553 C.ar    1  UNL1        0.0044
     21 C          56.2498   95.0105   -1.6218 C.ar    1  UNL1        0.0373
     22 C          57.2646   96.0252   -1.1854 C.ar    1  UNL1        0.0044
     23 C          58.4568   95.5962   -0.3826 C.ar    1  UNL1        0.0150
     24 C          55.0575   95.4394   -2.4247 C.ar    1  UNL1        0.1765
     25 C          53.6488   95.5490   -1.9212 C.ar    1  UNL1        0.0581
     26 C          52.7853   96.0113   -3.0573 C.ar    1  UNL1        0.1011
     27 C          51.3063   96.2548   -2.9982 C.3     1  UNL1        0.0557
     28 N          53.6603   96.1874   -4.2628 N.ar    1  UNL1       -0.0813
     29 O          55.0647   95.8339   -3.8718 O.2     1  UNL1       -0.3537
     30 C          64.7555   93.7679    1.3348 C.3     1  UNL1        0.0367
     31 C          64.8586   94.8348    2.3840 C.3     1  UNL1        0.0060
     32 C          64.6523   92.7009    0.2855 C.3     1  UNL1        0.0060
     33 C          65.9841   94.3079    0.6648 C.3     1  UNL1        0.0060
@<TRIPOS>BOND
     1    16    17    1
     2    17    10    1
     3    10    11   ar
     4    11    12   ar
     5    12    13   ar
     6    13    14   ar
     7    14    15   ar
     8    15     1    1
     9     1     2    1
    10     2     3    2
    11     3    30    1
    12    30    31    1
    13    30    32    1
    14    30    33    1
    15     3     4    1
    16     4     5    2
    17     5     6    1
    18     6     7    1
    19     7     8    2
    20     7     9   am
    21     9    18    1
    22    18    19   ar
    23    19    20   ar
    24    20    21   ar
    25    21    24    1
    26    24    25   ar
    27    25    26   ar
    28    26    27    1
    29    26    28   ar
    30    28    29   ar
    31    21    22   ar
    32    22    23   ar
    33    15    10   ar
    34     9     1    1
    35    23    18   ar
    36     6     2    1
    37    29    24   ar
@<TRIPOS>MOLECULE
*****
 33 37 0 0 0
SMALL
GASTEIGER

@<TRIPOS>ATOM
      1 C          60.7494   95.0781   -2.4234 C.3     1  UNL1        0.1272
      2 C          62.1583   95.2663   -2.9025 C.2     1  UNL1        0.0260
      3 C          63.5989   95.0288   -2.5587 C.2     1  UNL1        0.0757
      4 N          64.4379   95.5709   -3.6776 N.2     1  UNL1       -0.1569
      5 N          63.5159   96.1435   -4.7130 N.2     1  UNL1       -0.1631
      6 C          62.1069   95.9552   -4.2340 C.3     1  UNL1        0.2225
      7 C          60.6663   96.1927   -4.5778 C.2     1  UNL1        0.2581
      8 O          60.1546   96.8559   -5.8221 O.2     1  UNL1       -0.2720
      9 N          59.8272   95.6506   -3.4588 N.am    1  UNL1       -0.2508
     10 C          60.5951   95.1236    0.1697 C.ar    1  UNL1        0.1366
     11 C          60.1808   94.4764    1.4580 C.ar    1  UNL1        0.0366
     12 C          59.5068   93.1365    1.4414 C.ar    1  UNL1        0.0031
     13 C          59.2469   92.4437    0.1366 C.ar    1  UNL1       -0.0001
     14 C          59.6611   93.0910   -1.1517 C.ar    1  UNL1        0.0007
     15 C          60.3352   94.4309   -1.1351 C.ar    1  UNL1        0.0340
     16 C          62.1293   96.8560    1.3508 C.3     1  UNL1        0.2525
     17 O          61.2691   96.4635    0.1863 O.3     1  UNL1       -0.4717
     18 C          58.3292   95.6765   -3.3876 C.ar    1  UNL1        0.0544
     19 C          57.6322   96.7837   -2.6539 C.ar    1  UNL1        0.0150
     20 C          56.1342   96.8096   -2.5828 C.ar    1  UNL1        0.0044
     21 C          55.3330   95.7283   -3.2454 C.ar    1  UNL1        0.0373
     22 C          56.0300   94.6211   -3.9791 C.ar    1  UNL1        0.0044
     23 C          57.5281   94.5952   -4.0502 C.ar    1  UNL1        0.0150
     24 C          53.8349   95.7542   -3.1743 C.ar    1  UNL1        0.1765
     25 C          52.9087   96.2204   -4.2582 C.ar    1  UNL1        0.0581
     26 C          51.5014   96.0728   -3.7606 C.ar    1  UNL1        0.1011
     27 C          50.2563   96.4215   -4.5209 C.3     1  UNL1        0.0557
     28 N          51.5578   95.5154   -2.3692 N.ar    1  UNL1       -0.0813
     29 O          53.0000   95.3184   -2.0068 O.2     1  UNL1       -0.3537
     30 C          64.1106   94.3656   -1.3143 C.3     1  UNL1        0.0367
     31 C          64.7139   95.6650   -0.8699 C.3     1  UNL1        0.0060
     32 C          63.5073   93.0662   -1.7588 C.3     1  UNL1        0.0060
     33 C          64.6223   93.7024   -0.0700 C.3     1  UNL1        0.0060
@<TRIPOS>BOND
     1    16    17    1
     2    17    10    1
     3    10    11   ar
     4    11    12   ar
     5    12    13   ar
     6    13    14   ar
     7    14    15   ar
     8    15     1    1
     9     1     2    1
    10     2     3    2
    11     3    30    1
    12    30    31    1
    13    30    32    1
    14    30    33    1
    15     3     4    1
    16     4     5    2
    17     5     6    1
    18     6     7    1
    19     7     8    2
    20     7     9   am
    21     9    18    1
    22    18    19   ar
    23    19    20   ar
    24    20    21   ar
    25    21    24    1
    26    24    25   ar
    27    25    26   ar
    28    26    27    1
    29    26    28   ar
    30    28    29   ar
    31    21    22   ar
    32    22    23   ar
    33    15    10   ar
    34     9     1    1
    35    23    18   ar
    36     6     2    1
    37    29    24   ar
@<TRIPOS>MOLECULE
*****
 33 37 0 0 0
SMALL
GASTEIGER

@<TRIPOS>ATOM
      1 C          59.9766   95.0695   -3.5298 C.3     1  UNL1        0.1272
      2 C          61.3558   95.1525   -4.1136 C.2     1  UNL1        0.0260
      3 C          62.8046   94.8675   -3.8493 C.2     1  UNL1        0.0757
      4 N          63.5874   95.2869   -5.0581 N.2     1  UNL1       -0.1569
      5 N          62.6225   95.8310   -6.0695 N.2     1  UNL1       -0.1631
      6 C          61.2433   95.7480   -5.4857 C.3     1  UNL1        0.2225
      7 C          59.7945   96.0330   -5.7500 C.2     1  UNL1        0.2581
      8 O          59.2281   96.6321   -7.0031 O.2     1  UNL1       -0.2720
      9 N          59.0116   95.6136   -4.5412 N.am    1  UNL1       -0.2508
     10 C          58.9197   93.2178   -2.0451 C.ar    1  UNL1        0.1366
     11 C          58.5672   92.6843   -0.6881 C.ar    1  UNL1        0.0366
     12 C          58.9191   93.4689    0.5409 C.ar    1  UNL1        0.0031
     13 C          59.6235   94.7871    0.4130 C.ar    1  UNL1       -0.0001
     14 C          59.9760   95.3206   -0.9440 C.ar    1  UNL1        0.0007
     15 C          59.6241   94.5359   -2.1730 C.ar    1  UNL1        0.0340
     16 C          57.1916   91.8563   -3.4271 C.3     1  UNL1        0.2525
     17 O          58.5678   92.4331   -3.2741 O.3     1  UNL1       -0.4717
     18 C          57.5249   95.7198   -4.3732 C.ar    1  UNL1        0.0544
     19 C          56.9500   96.6654   -3.3605 C.ar    1  UNL1        0.0150
     20 C          55.4634   96.7716   -3.1926 C.ar    1  UNL1        0.0044
     21 C          54.5513   95.9320   -4.0373 C.ar    1  UNL1        0.0373
     22 C          55.1260   94.9864   -5.0499 C.ar    1  UNL1        0.0044
     23 C          56.6128   94.8803   -5.2178 C.ar    1  UNL1        0.0150
     24 C          53.0645   96.0382   -3.8693 C.ar    1  UNL1        0.1765
     25 C          52.0920   96.5171   -4.9062 C.ar    1  UNL1        0.0581
     26 C          50.7157   96.4590   -4.3127 C.ar    1  UNL1        0.1011
     27 C          49.4412   96.8474   -5.0018 C.3     1  UNL1        0.0557
     28 N          50.8375   95.9443   -2.9090 N.ar    1  UNL1       -0.0813
     29 O          52.2891   95.6842   -2.6350 O.2     1  UNL1       -0.3537
     30 C          63.3710   94.2684   -2.5962 C.3     1  UNL1        0.0367
     31 C          63.1211   92.8933   -3.1407 C.3     1  UNL1        0.0060
     32 C          63.6209   95.6435   -2.0517 C.3     1  UNL1        0.0060
     33 C          63.9374   93.6693   -1.3431 C.3     1  UNL1        0.0060
@<TRIPOS>BOND
     1    16    17    1
     2    17    10    1
     3    10    11   ar
     4    11    12   ar
     5    12    13   ar
     6    13    14   ar
     7    14    15   ar
     8    15     1    1
     9     1     2    1
    10     2     3    2
    11     3    30    1
    12    30    31    1
    13    30    32    1
    14    30    33    1
    15     3     4    1
    16     4     5    2
    17     5     6    1
    18     6     7    1
    19     7     8    2
    20     7     9   am
    21     9    18    1
    22    18    19   ar
    23    19    20   ar
    24    20    21   ar
    25    21    24    1
    26    24    25   ar
    27    25    26   ar
    28    26    27    1
    29    26    28   ar
    30    28    29   ar
    31    21    22   ar
    32    22    23   ar
    33    15    10   ar
    34     9     1    1
    35    23    18   ar
    36     6     2    1
    37    29    24   ar
@<TRIPOS>MOLECULE
*****
 33 37 0 0 0
SMALL
GASTEIGER

@<TRIPOS>ATOM
      1 C          62.9377   87.3667   12.0468 C.3     1  UNL1        0.1272
      2 C          63.3485   88.7040   12.5879 C.2     1  UNL1        0.0260
      3 C          63.2740   90.1835   12.3519 C.2     1  UNL1        0.0757
      4 N          64.0133   90.8679   13.4632 N.2     1  UNL1       -0.1569
      5 N          64.5446   89.8114   14.3861 N.2     1  UNL1       -0.1631
      6 C          64.1337   88.4741   13.8451 C.3     1  UNL1        0.2225
      7 C          64.2082   86.9946   14.0811 C.2     1  UNL1        0.2581
      8 O          64.9003   86.3183   15.2272 O.2     1  UNL1       -0.2720
      9 N          63.4690   86.3102   12.9696 N.am    1  UNL1       -0.2508
     10 C          60.6683   87.4358   10.7837 C.ar    1  UNL1        0.1366
     11 C          59.8669   87.1968    9.5384 C.ar    1  UNL1        0.0366
     12 C          60.5334   86.6497    8.3111 C.ar    1  UNL1        0.0031
     13 C          62.0013   86.3416    8.3289 C.ar    1  UNL1       -0.0001
     14 C          62.8027   86.5806    9.5742 C.ar    1  UNL1        0.0007
     15 C          62.1362   87.1277   10.8016 C.ar    1  UNL1        0.0340
     16 C          58.7827   88.8471   11.8805 C.3     1  UNL1        0.2525
     17 O          60.0018   87.9829   12.0111 O.3     1  UNL1       -0.4717
     18 C          63.2921   84.8294   12.8093 C.ar    1  UNL1        0.0544
     19 C          62.5340   84.0484   13.8415 C.ar    1  UNL1        0.0150
     20 C          62.3572   82.5676   13.6812 C.ar    1  UNL1        0.0044
     21 C          62.9384   81.8676   12.4885 C.ar    1  UNL1        0.0373
     22 C          63.6965   82.6485   11.4563 C.ar    1  UNL1        0.0044
     23 C          63.8733   84.1294   11.6167 C.ar    1  UNL1        0.0150
     24 C          62.7615   80.3867   12.3282 C.ar    1  UNL1        0.1765
     25 C          62.9809   79.6040   11.0675 C.ar    1  UNL1        0.0581
     26 C          62.6892   78.1621   11.3605 C.ar    1  UNL1        0.1011
     27 C          62.7810   77.0277   10.3834 C.3     1  UNL1        0.0557
     28 N          62.2896   78.0537   12.8022 N.ar    1  UNL1       -0.0813
     29 O          62.3343   79.4286   13.4003 O.2     1  UNL1       -0.3537
     30 C          62.5819   90.8598   11.2057 C.3     1  UNL1        0.0367
     31 C          61.2660   90.7043   11.9087 C.3     1  UNL1        0.0060
     32 C          63.8979   91.0153   10.5028 C.3     1  UNL1        0.0060
     33 C          61.8898   91.5361   10.0596 C.3     1  UNL1        0.0060
@<TRIPOS>BOND
     1    16    17    1
     2    17    10    1
     3    10    11   ar
     4    11    12   ar
     5    12    13   ar
     6    13    14   ar
     7    14    15   ar
     8    15     1    1
     9     1     2    1
    10     2     3    2
    11     3    30    1
    12    30    31    1
    13    30    32    1
    14    30    33    1
    15     3     4    1
    16     4     5    2
    17     5     6    1
    18     6     7    1
    19     7     8    2
    20     7     9   am
    21     9    18    1
    22    18    19   ar
    23    19    20   ar
    24    20    21   ar
    25    21    24    1
    26    24    25   ar
    27    25    26   ar
    28    26    27    1
    29    26    28   ar
    30    28    29   ar
    31    21    22   ar
    32    22    23   ar
    33    15    10   ar
    34     9     1    1
    35    23    18   ar
    36     6     2    1
    37    29    24   ar
@<TRIPOS>MOLECULE
*****
 33 37 0 0 0
SMALL
GASTEIGER

@<TRIPOS>ATOM
      1 C          63.0347   87.8344   12.3525 C.3     1  UNL1        0.1272
      2 C          63.6790   89.1487   12.6806 C.2     1  UNL1        0.0260
      3 C          63.8787   90.5556   12.2004 C.2     1  UNL1        0.0757
      4 N          64.7214   91.2751   13.2115 N.2     1  UNL1       -0.1569
      5 N          65.0424   90.3129   14.3165 N.2     1  UNL1       -0.1631
      6 C          64.3981   88.9986   13.9884 C.3     1  UNL1        0.2225
      7 C          64.1983   87.5917   14.4686 C.2     1  UNL1        0.2581
      8 O          64.7452   87.0069   15.7371 O.2     1  UNL1       -0.2720
      9 N          63.3557   86.8721   13.4575 N.am    1  UNL1       -0.2508
     10 C          60.7341   87.7814   11.1465 C.ar    1  UNL1        0.1366
     11 C          59.9130   87.4819    9.9273 C.ar    1  UNL1        0.0366
     12 C          60.5715   86.9360    8.6951 C.ar    1  UNL1        0.0031
     13 C          62.0511   86.6895    8.6820 C.ar    1  UNL1       -0.0001
     14 C          62.8722   86.9890    9.9012 C.ar    1  UNL1        0.0007
     15 C          62.2137   87.5349   11.1334 C.ar    1  UNL1        0.0340
     16 C          58.8240   89.1457   12.2603 C.3     1  UNL1        0.2525
     17 O          60.0756   88.3274   12.3787 O.3     1  UNL1       -0.4717
     18 C          62.9120   85.4415   13.5374 C.ar    1  UNL1        0.0544
     19 C          62.9291   84.5811   12.3087 C.ar    1  UNL1        0.0150
     20 C          62.4854   83.1506   12.3886 C.ar    1  UNL1        0.0044
     21 C          62.0245   82.5802   13.6973 C.ar    1  UNL1        0.0373
     22 C          62.0073   83.4405   14.9259 C.ar    1  UNL1        0.0044
     23 C          62.4511   84.8712   14.8459 C.ar    1  UNL1        0.0150
     24 C          61.5808   81.1496   13.7772 C.ar    1  UNL1        0.1765
     25 C          60.2074   80.6717   14.1455 C.ar    1  UNL1        0.0581
     26 C          60.2103   79.1725   14.0987 C.ar    1  UNL1        0.1011
     27 C          59.0431   78.2788   14.3968 C.3     1  UNL1        0.0557
     28 N          61.5854   78.7238   13.7015 N.ar    1  UNL1       -0.0813
     29 O          62.4324   79.9457   13.5027 O.2     1  UNL1       -0.3537
     30 C          63.3319   91.1404   10.9320 C.3     1  UNL1        0.0367
     31 C          61.9425   90.7733   11.3617 C.3     1  UNL1        0.0060
     32 C          64.7214   91.5075   10.5022 C.3     1  UNL1        0.0060
     33 C          62.7851   91.7251    9.6635 C.3     1  UNL1        0.0060
@<TRIPOS>BOND
     1    16    17    1
     2    17    10    1
     3    10    11   ar
     4    11    12   ar
     5    12    13   ar
     6    13    14   ar
     7    14    15   ar
     8    15     1    1
     9     1     2    1
    10     2     3    2
    11     3    30    1
    12    30    31    1
    13    30    32    1
    14    30    33    1
    15     3     4    1
    16     4     5    2
    17     5     6    1
    18     6     7    1
    19     7     8    2
    20     7     9   am
    21     9    18    1
    22    18    19   ar
    23    19    20   ar
    24    20    21   ar
    25    21    24    1
    26    24    25   ar
    27    25    26   ar
    28    26    27    1
    29    26    28   ar
    30    28    29   ar
    31    21    22   ar
    32    22    23   ar
    33    15    10   ar
    34     9     1    1
    35    23    18   ar
    36     6     2    1
    37    29    24   ar
@<TRIPOS>MOLECULE
*****
 33 37 0 0 0
SMALL
GASTEIGER

@<TRIPOS>ATOM
      1 C          63.1473   85.1900   13.3665 C.3     1  UNL1        0.1272
      2 C          62.8638   84.0959   14.3527 C.2     1  UNL1        0.0260
      3 C          62.5369   82.6381   14.4871 C.2     1  UNL1        0.0757
      4 N          62.4050   82.3256   15.9483 N.2     1  UNL1       -0.1569
      5 N          62.6504   83.5902   16.7168 N.2     1  UNL1       -0.1631
      6 C          62.9340   84.6843   15.7307 C.3     1  UNL1        0.2225
      7 C          63.2609   86.1420   15.5962 C.2     1  UNL1        0.2581
      8 O          63.4268   87.1162   16.7247 O.2     1  UNL1       -0.2720
      9 N          63.3928   86.4546   14.1350 N.am    1  UNL1       -0.2508
     10 C          62.1460   85.7313   11.0310 C.ar    1  UNL1        0.1366
     11 C          62.1784   85.5863    9.5383 C.ar    1  UNL1        0.0366
     12 C          63.2447   84.7550    8.8886 C.ar    1  UNL1        0.0031
     13 C          64.2784   84.0688    9.7314 C.ar    1  UNL1       -0.0001
     14 C          64.2460   84.2138   11.2241 C.ar    1  UNL1        0.0007
     15 C          63.1798   85.0450   11.8739 C.ar    1  UNL1        0.0340
     16 C          60.2700   87.5204   10.8581 C.3     1  UNL1        0.2525
     17 O          61.0798   86.5625   11.6808 O.3     1  UNL1       -0.4717
     18 C          63.7137   87.7961   13.5458 C.ar    1  UNL1        0.0544
     19 C          63.1849   88.1666   12.1919 C.ar    1  UNL1        0.0150
     20 C          63.5059   89.5082   11.6027 C.ar    1  UNL1        0.0044
     21 C          64.3556   90.4794   12.3675 C.ar    1  UNL1        0.0373
     22 C          64.8844   90.1089   13.7214 C.ar    1  UNL1        0.0044
     23 C          64.5634   88.7673   14.3106 C.ar    1  UNL1        0.0150
     24 C          64.6766   91.8209   11.7783 C.ar    1  UNL1        0.1765
     25 C          65.5207   92.8846   12.4155 C.ar    1  UNL1        0.0581
     26 C          65.5756   94.0554   11.4795 C.ar    1  UNL1        0.1011
     27 C          66.3115   95.3407   11.7174 C.3     1  UNL1        0.0557
     28 N          64.7653   93.7154   10.2639 N.ar    1  UNL1       -0.0813
     29 O          64.2097   92.3344   10.4485 O.2     1  UNL1       -0.3537
     30 C          62.3709   81.6640   13.3587 C.3     1  UNL1        0.0367
     31 C          60.9189   81.5123   13.7031 C.3     1  UNL1        0.0060
     32 C          63.8229   81.8156   13.0142 C.3     1  UNL1        0.0060
     33 C          62.2050   80.6898   12.2302 C.3     1  UNL1        0.0060
@<TRIPOS>BOND
     1    16    17    1
     2    17    10    1
     3    10    11   ar
     4    11    12   ar
     5    12    13   ar
     6    13    14   ar
     7    14    15   ar
     8    15     1    1
     9     1     2    1
    10     2     3    2
    11     3    30    1
    12    30    31    1
    13    30    32    1
    14    30    33    1
    15     3     4    1
    16     4     5    2
    17     5     6    1
    18     6     7    1
    19     7     8    2
    20     7     9   am
    21     9    18    1
    22    18    19   ar
    23    19    20   ar
    24    20    21   ar
    25    21    24    1
    26    24    25   ar
    27    25    26   ar
    28    26    27    1
    29    26    28   ar
    30    28    29   ar
    31    21    22   ar
    32    22    23   ar
    33    15    10   ar
    34     9     1    1
    35    23    18   ar
    36     6     2    1
    37    29    24   ar
