@<TRIPOS>MOLECULE
*****
 44 47 0 0 0
SMALL
GASTEIGER

@<TRIPOS>ATOM
      1 C          61.9627   88.2643   11.0062 C.3     1  UNL1        0.0807
      2 C          62.9325   89.3059   11.4802 C.ar    1  UNL1        0.0375
      3 C          63.2230   90.5042   10.6260 C.ar    1  UNL1        0.0023
      4 C          64.1928   91.5458   11.0999 C.ar    1  UNL1        0.0181
      5 C          64.4833   92.7441   10.2457 C.ar    1  UNL1        0.0082
      6 C          65.4531   93.7857   10.7197 C.ar    1  UNL1        0.0347
      7 BR         65.7436   94.9840    9.8654 Br      1  UNL1       -0.0490
      8 C          66.1324   93.6290   12.0478 C.ar    1  UNL1        0.0082
      9 C          65.8419   92.4307   12.9020 C.ar    1  UNL1        0.0197
     10 C          64.8721   91.3891   12.4281 C.ar    1  UNL1        0.0844
     11 N          64.5816   90.1908   13.2823 N.ar    1  UNL1       -0.2119
     12 C          63.6118   89.1492   12.8084 C.ar    1  UNL1        0.2211
     13 O          63.3213   87.9509   13.6626 O.3     1  UNL1       -0.4563
     14 C          64.3220   87.4976   14.6840 C.3     1  UNL1        0.2542
     15 C          62.4678   87.0041   10.3686 C.ar    1  UNL1        0.0213
     16 C          63.0238   87.0390    8.9759 C.ar    1  UNL1       -0.0007
     17 C          63.5289   85.7787    8.3381 C.ar    1  UNL1        0.0030
     18 C          63.4781   84.4836    9.0932 C.ar    1  UNL1        0.0400
     19 C          62.9221   84.4487   10.4859 C.ar    1  UNL1        0.1721
     20 C          62.4170   85.7090   11.1236 C.ar    1  UNL1        0.1687
     21 O          62.8712   83.1536   11.2410 O.3     1  UNL1       -0.4684
     22 C          63.8694   82.0735   10.9455 C.3     1  UNL1        0.2526
     23 O          61.8610   85.6741   12.5163 O.3     1  UNL1       -0.4687
     24 C          62.4038   84.6967   13.5163 C.3     1  UNL1        0.2526
     25 C          60.4878   88.4830   11.1699 C.3     1  UNL1        0.1162
     26 O          60.6847   88.7106   12.6394 O.3     1  UNL1       -0.3820
     27 H          59.8279   88.8931   13.0560 H       1  UNL1        0.2107
     28 C          59.9699   86.6310    7.6984 C.ar    1  UNL1        0.2271
     29 C          60.1668   86.8587    9.1679 C.ar    1  UNL1        0.0559
     30 C          60.2909   88.2554    9.7004 C.ar    1  UNL1        0.0117
     31 C          60.2182   89.4245    8.7635 C.ar    1  UNL1        0.0559
     32 C          60.0214   89.1968    7.2940 C.ar    1  UNL1        0.2271
     33 N          59.8972   87.8001    6.7614 N.ar    1  UNL1       -0.1767
     34 O          59.8457   85.2342    7.1658 O.3     1  UNL1       -0.4602
     35 C          61.6319   84.4535    5.4483 C.3     1  UNL1        0.0512
     36 C          61.0781   84.4426    6.8422 C.3     1  UNL1        0.2072
     37 O          59.9487   90.3660    6.3571 O.3     1  UNL1       -0.4602
     38 C          58.6899   90.6319    5.5858 C.3     1  UNL1        0.2072
     39 C          58.5529   91.8932    4.7857 C.3     1  UNL1        0.0512
     40 C          59.0129   88.7017   11.3337 C.3     1  UNL1        0.0491
     41 C          58.4915   89.4275   12.5383 C.3     1  UNL1        0.0750
     42 N          57.9377   88.6544   13.6983 N.3     1  UNL1       -0.2702
     43 C          58.7192   88.5546   14.9747 C.3     1  UNL1        0.0897
     44 C          56.6025   87.9809   13.5819 C.3     1  UNL1        0.0897
@<TRIPOS>BOND
     1    35    36    1
     2    36    34    1
     3    34    28    1
     4    28    29   ar
     5    29    30   ar
     6    30    25    1
     7    25    26    1
     8    25    40    1
     9    40    41    1
    10    41    42    1
    11    42    43    1
    12    42    44    1
    13    25     1    1
    14     1     2    1
    15     2     3   ar
    16     3     4   ar
    17     4     5   ar
    18     5     6   ar
    19     6     7    1
    20     6     8   ar
    21     8     9   ar
    22     9    10   ar
    23    10    11   ar
    24    11    12   ar
    25    12    13    1
    26    13    14    1
    27     1    15    1
    28    15    16   ar
    29    16    17   ar
    30    17    18   ar
    31    18    19   ar
    32    19    21    1
    33    21    22    1
    34    19    20   ar
    35    20    23    1
    36    23    24    1
    37    30    31   ar
    38    31    32   ar
    39    32    37    1
    40    37    38    1
    41    38    39    1
    42    32    33   ar
    43    33    28   ar
    44    12     2   ar
    45    20    15   ar
    46    10     4   ar
    47    26    27    1
@<TRIPOS>MOLECULE
*****
 44 47 0 0 0
SMALL
GASTEIGER

@<TRIPOS>ATOM
      1 C          61.9678   88.3031   11.0014 C.3     1  UNL1        0.0807
      2 C          62.9402   89.3427   11.4747 C.ar    1  UNL1        0.0375
      3 C          63.2321   90.5407   10.6206 C.ar    1  UNL1        0.0023
      4 C          64.2045   91.5802   11.0938 C.ar    1  UNL1        0.0181
      5 C          64.4964   92.7782   10.2397 C.ar    1  UNL1        0.0082
      6 C          65.4688   93.8177   10.7130 C.ar    1  UNL1        0.0347
      7 BR         65.7607   95.0158    9.8589 Br      1  UNL1       -0.0490
      8 C          66.1492   93.6592   12.0404 C.ar    1  UNL1        0.0082
      9 C          65.8572   92.4612   12.8945 C.ar    1  UNL1        0.0197
     10 C          64.8849   91.4217   12.4212 C.ar    1  UNL1        0.0844
     11 N          64.5930   90.2237   13.2754 N.ar    1  UNL1       -0.2119
     12 C          63.6206   89.1841   12.8021 C.ar    1  UNL1        0.2211
     13 O          63.3287   87.9861   13.6562 O.3     1  UNL1       -0.4563
     14 C          64.3135   87.5520   14.7011 C.3     1  UNL1        0.2542
     15 C          62.4694   87.0461   10.3548 C.ar    1  UNL1        0.0213
     16 C          63.0255   87.0893    8.9624 C.ar    1  UNL1       -0.0007
     17 C          63.5271   85.8322    8.3157 C.ar    1  UNL1        0.0030
     18 C          63.4727   84.5319    9.0615 C.ar    1  UNL1        0.0400
     19 C          62.9166   84.4887   10.4540 C.ar    1  UNL1        0.1721
     20 C          62.4150   85.7458   11.1006 C.ar    1  UNL1        0.1687
     21 O          62.8622   83.1884   11.1998 O.3     1  UNL1       -0.4684
     22 C          64.0604   82.2863   11.2229 C.3     1  UNL1        0.2526
     23 O          61.8589   85.7025   12.4930 O.3     1  UNL1       -0.4687
     24 C          62.4656   84.7871   13.5148 C.3     1  UNL1        0.2526
     25 C          60.4939   88.5208   11.1748 C.3     1  UNL1        0.1162
     26 O          60.6991   88.7399   12.6444 O.3     1  UNL1       -0.3820
     27 H          59.8446   88.9198   13.0669 H       1  UNL1        0.2107
     28 C          60.0142   89.2565    7.3046 C.ar    1  UNL1        0.2271
     29 C          60.2195   89.4757    8.7742 C.ar    1  UNL1        0.0559
     30 C          60.2886   88.3016    9.7051 C.ar    1  UNL1        0.0117
     31 C          60.1526   86.9083    9.1664 C.ar    1  UNL1        0.0559
     32 C          59.9474   86.6892    7.6968 C.ar    1  UNL1        0.2271
     33 N          59.8782   87.8633    6.7659 N.ar    1  UNL1       -0.1767
     34 O          59.9451   90.4307    6.3737 O.3     1  UNL1       -0.4602
     35 C          58.6176   91.8788    4.6734 C.3     1  UNL1        0.0512
     36 C          58.6851   90.7078    5.6082 C.3     1  UNL1        0.2072
     37 O          59.8114   85.2958    7.1581 O.3     1  UNL1       -0.4602
     38 C          61.0362   84.4720    6.8912 C.3     1  UNL1        0.2072
     39 C          61.6403   84.4493    5.5185 C.3     1  UNL1        0.0512
     40 C          59.0199   88.7384   11.3482 C.3     1  UNL1        0.0491
     41 C          58.5043   89.4455   12.5664 C.3     1  UNL1        0.0750
     42 N          57.9541   88.6547   13.7161 N.3     1  UNL1       -0.2702
     43 C          56.6239   87.9733   13.5893 C.3     1  UNL1        0.0897
     44 C          58.7342   88.5451   14.9925 C.3     1  UNL1        0.0897
@<TRIPOS>BOND
     1    35    36    1
     2    36    34    1
     3    34    28    1
     4    28    29   ar
     5    29    30   ar
     6    30    25    1
     7    25    26    1
     8    25    40    1
     9    40    41    1
    10    41    42    1
    11    42    43    1
    12    42    44    1
    13    25     1    1
    14     1     2    1
    15     2     3   ar
    16     3     4   ar
    17     4     5   ar
    18     5     6   ar
    19     6     7    1
    20     6     8   ar
    21     8     9   ar
    22     9    10   ar
    23    10    11   ar
    24    11    12   ar
    25    12    13    1
    26    13    14    1
    27     1    15    1
    28    15    16   ar
    29    16    17   ar
    30    17    18   ar
    31    18    19   ar
    32    19    21    1
    33    21    22    1
    34    19    20   ar
    35    20    23    1
    36    23    24    1
    37    30    31   ar
    38    31    32   ar
    39    32    37    1
    40    37    38    1
    41    38    39    1
    42    32    33   ar
    43    33    28   ar
    44    12     2   ar
    45    20    15   ar
    46    10     4   ar
    47    26    27    1
@<TRIPOS>MOLECULE
*****
 44 47 0 0 0
SMALL
GASTEIGER

@<TRIPOS>ATOM
      1 C          62.2993   89.2808   12.1975 C.3     1  UNL1        0.0807
      2 C          62.7963   87.9244   12.6017 C.ar    1  UNL1        0.0375
      3 C          62.7662   86.7912   11.6193 C.ar    1  UNL1        0.0023
      4 C          63.2632   85.4349   12.0234 C.ar    1  UNL1        0.0181
      5 C          63.2331   84.3018   11.0410 C.ar    1  UNL1        0.0082
      6 C          63.7301   82.9454   11.4451 C.ar    1  UNL1        0.0347
      7 BR         63.7000   81.8122   10.4627 Br      1  UNL1       -0.0490
      8 C          64.2571   82.7222   12.8316 C.ar    1  UNL1        0.0082
      9 C          64.2872   83.8553   13.8140 C.ar    1  UNL1        0.0197
     10 C          63.7902   85.2116   13.4099 C.ar    1  UNL1        0.0844
     11 N          63.8203   86.3448   14.3923 N.ar    1  UNL1       -0.2119
     12 C          63.3233   87.7012   13.9882 C.ar    1  UNL1        0.2211
     13 O          63.3534   88.8343   14.9706 O.3     1  UNL1       -0.4563
     14 C          63.1527   88.5650   16.4325 C.3     1  UNL1        0.2542
     15 C          63.2665   90.3209   11.7153 C.ar    1  UNL1        0.0213
     16 C          63.5456   90.4628   10.2484 C.ar    1  UNL1       -0.0007
     17 C          64.5129   91.5030    9.7662 C.ar    1  UNL1        0.0030
     18 C          65.2010   92.4012   10.7509 C.ar    1  UNL1        0.0400
     19 C          64.9218   92.2593   12.2179 C.ar    1  UNL1        0.1721
     20 C          63.9546   91.2191   12.7001 C.ar    1  UNL1        0.1687
     21 O          65.6099   93.1575   13.2026 O.3     1  UNL1       -0.4684
     22 C          66.4089   94.3305   12.7168 C.3     1  UNL1        0.2526
     23 O          63.6755   91.0772   14.1670 O.3     1  UNL1       -0.4687
     24 C          64.7443   91.4007   15.1685 C.3     1  UNL1        0.2526
     25 C          60.8351   89.5969   12.2756 C.3     1  UNL1        0.1162
     26 O          61.0172   90.0938   13.6792 O.3     1  UNL1       -0.3820
     27 H          60.1637   90.3936   14.0293 H       1  UNL1        0.2107
     28 C          60.6248   87.1426    9.1640 C.ar    1  UNL1        0.2271
     29 C          60.8069   87.6394   10.5676 C.ar    1  UNL1        0.0559
     30 C          60.6529   89.1001   10.8721 C.ar    1  UNL1        0.0117
     31 C          60.3169   90.0639    9.7730 C.ar    1  UNL1        0.0559
     32 C          60.1347   89.5670    8.3694 C.ar    1  UNL1        0.2271
     33 N          60.2887   88.1064    8.0649 N.ar    1  UNL1       -0.1767
     34 O          60.7787   85.6818    8.8596 O.3     1  UNL1       -0.4602
     35 C          62.7955   84.9143    7.4127 C.3     1  UNL1        0.0512
     36 C          61.3380   85.2461    7.5377 C.3     1  UNL1        0.2072
     37 O          59.7986   90.5309    7.2703 O.3     1  UNL1       -0.4602
     38 C          59.0487   90.0573    6.0607 C.3     1  UNL1        0.2072
     39 C          58.2573   91.0317    5.2396 C.3     1  UNL1        0.0512
     40 C          59.3708   89.9131   12.3537 C.3     1  UNL1        0.0491
     41 C          58.3594   88.8090   12.2647 C.3     1  UNL1        0.0750
     42 N          57.6494   88.3409   13.5004 N.3     1  UNL1       -0.2702
     43 C          56.2010   87.9570   13.4332 C.3     1  UNL1        0.0897
     44 C          58.3879   88.2567   14.8032 C.3     1  UNL1        0.0897
@<TRIPOS>BOND
     1    35    36    1
     2    36    34    1
     3    34    28    1
     4    28    29   ar
     5    29    30   ar
     6    30    25    1
     7    25    26    1
     8    25    40    1
     9    40    41    1
    10    41    42    1
    11    42    43    1
    12    42    44    1
    13    25     1    1
    14     1     2    1
    15     2     3   ar
    16     3     4   ar
    17     4     5   ar
    18     5     6   ar
    19     6     7    1
    20     6     8   ar
    21     8     9   ar
    22     9    10   ar
    23    10    11   ar
    24    11    12   ar
    25    12    13    1
    26    13    14    1
    27     1    15    1
    28    15    16   ar
    29    16    17   ar
    30    17    18   ar
    31    18    19   ar
    32    19    21    1
    33    21    22    1
    34    19    20   ar
    35    20    23    1
    36    23    24    1
    37    30    31   ar
    38    31    32   ar
    39    32    37    1
    40    37    38    1
    41    38    39    1
    42    32    33   ar
    43    33    28   ar
    44    12     2   ar
    45    20    15   ar
    46    10     4   ar
    47    26    27    1
@<TRIPOS>MOLECULE
*****
 44 47 0 0 0
SMALL
GASTEIGER

@<TRIPOS>ATOM
      1 C          62.2875   89.2701   12.1822 C.3     1  UNL1        0.0807
      2 C          62.7873   87.9132   12.5809 C.ar    1  UNL1        0.0375
      3 C          62.7578   86.7834   11.5946 C.ar    1  UNL1        0.0023
      4 C          63.2576   85.4265   11.9932 C.ar    1  UNL1        0.0181
      5 C          63.2281   84.2968   11.0069 C.ar    1  UNL1        0.0082
      6 C          63.7278   82.9398   11.4057 C.ar    1  UNL1        0.0347
      7 BR         63.6984   81.8101   10.4193 Br      1  UNL1       -0.0490
      8 C          64.2571   82.7126   12.7906 C.ar    1  UNL1        0.0082
      9 C          64.2866   83.8423   13.7770 C.ar    1  UNL1        0.0197
     10 C          63.7868   85.1993   13.3783 C.ar    1  UNL1        0.0844
     11 N          63.8163   86.3290   14.3646 N.ar    1  UNL1       -0.2119
     12 C          63.3165   87.6860   13.9659 C.ar    1  UNL1        0.2211
     13 O          63.3460   88.8157   14.9522 O.3     1  UNL1       -0.4563
     14 C          63.1971   88.5354   16.4183 C.3     1  UNL1        0.2542
     15 C          63.2529   90.3149   11.7061 C.ar    1  UNL1        0.0213
     16 C          63.5366   90.4616   10.2405 C.ar    1  UNL1       -0.0007
     17 C          64.5020   91.5064    9.7644 C.ar    1  UNL1        0.0030
     18 C          65.1836   92.4043   10.7539 C.ar    1  UNL1        0.0400
     19 C          64.8998   92.2575   12.2196 C.ar    1  UNL1        0.1721
     20 C          63.9345   91.2128   12.6956 C.ar    1  UNL1        0.1687
     21 O          65.5814   93.1555   13.2091 O.3     1  UNL1       -0.4684
     22 C          66.4581   94.2734   12.7276 C.3     1  UNL1        0.2526
     23 O          63.6507   91.0660   14.1612 O.3     1  UNL1       -0.4687
     24 C          64.7041   91.4212   15.1683 C.3     1  UNL1        0.2526
     25 C          60.8224   89.5823   12.2595 C.3     1  UNL1        0.1162
     26 O          61.0013   90.0733   13.6655 O.3     1  UNL1       -0.3820
     27 H          60.1466   90.3695   14.0158 H       1  UNL1        0.2107
     28 C          60.1324   89.5688    8.3514 C.ar    1  UNL1        0.2271
     29 C          60.3112   90.0598    9.7574 C.ar    1  UNL1        0.0559
     30 C          60.6436   89.0913   10.8535 C.ar    1  UNL1        0.0117
     31 C          60.7971   87.6318   10.5435 C.ar    1  UNL1        0.0559
     32 C          60.6183   87.1408    9.1375 C.ar    1  UNL1        0.2271
     33 N          60.2859   88.1093    8.0414 N.ar    1  UNL1       -0.1767
     34 O          59.8000   90.5375    7.2553 O.3     1  UNL1       -0.4602
     35 C          58.2350   91.0163    5.2374 C.3     1  UNL1        0.0512
     36 C          59.0817   90.0625    6.0270 C.3     1  UNL1        0.2072
     37 O          60.7718   85.6811    8.8275 O.3     1  UNL1       -0.4602
     38 C          61.3313   85.2502    7.5042 C.3     1  UNL1        0.2072
     39 C          62.7835   84.8944    7.3838 C.3     1  UNL1        0.0512
     40 C          59.3573   89.8945   12.3368 C.3     1  UNL1        0.0491
     41 C          58.3495   88.7859   12.2655 C.3     1  UNL1        0.0750
     42 N          57.6488   88.3280   13.5103 N.3     1  UNL1       -0.2702
     43 C          56.2046   87.9269   13.4536 C.3     1  UNL1        0.0897
     44 C          58.3924   88.2711   14.8117 C.3     1  UNL1        0.0897
@<TRIPOS>BOND
     1    35    36    1
     2    36    34    1
     3    34    28    1
     4    28    29   ar
     5    29    30   ar
     6    30    25    1
     7    25    26    1
     8    25    40    1
     9    40    41    1
    10    41    42    1
    11    42    43    1
    12    42    44    1
    13    25     1    1
    14     1     2    1
    15     2     3   ar
    16     3     4   ar
    17     4     5   ar
    18     5     6   ar
    19     6     7    1
    20     6     8   ar
    21     8     9   ar
    22     9    10   ar
    23    10    11   ar
    24    11    12   ar
    25    12    13    1
    26    13    14    1
    27     1    15    1
    28    15    16   ar
    29    16    17   ar
    30    17    18   ar
    31    18    19   ar
    32    19    21    1
    33    21    22    1
    34    19    20   ar
    35    20    23    1
    36    23    24    1
    37    30    31   ar
    38    31    32   ar
    39    32    37    1
    40    37    38    1
    41    38    39    1
    42    32    33   ar
    43    33    28   ar
    44    12     2   ar
    45    20    15   ar
    46    10     4   ar
    47    26    27    1
@<TRIPOS>MOLECULE
*****
 44 47 0 0 0
SMALL
GASTEIGER

@<TRIPOS>ATOM
      1 C          61.9932   87.8079   10.8670 C.3     1  UNL1        0.0807
      2 C          62.5548   86.8533   11.8787 C.ar    1  UNL1        0.0375
      3 C          62.1161   85.4189   11.8809 C.ar    1  UNL1        0.0023
      4 C          62.6776   84.4644   12.8925 C.ar    1  UNL1        0.0181
      5 C          62.2389   83.0300   12.8947 C.ar    1  UNL1        0.0082
      6 C          62.8005   82.0754   13.9064 C.ar    1  UNL1        0.0347
      7 BR         62.3617   80.6410   13.9086 Br      1  UNL1       -0.0490
      8 C          63.8008   82.5553   14.9159 C.ar    1  UNL1        0.0082
      9 C          64.2395   83.9897   14.9137 C.ar    1  UNL1        0.0197
     10 C          63.6780   84.9442   13.9020 C.ar    1  UNL1        0.0844
     11 N          64.1167   86.3786   13.8999 N.ar    1  UNL1       -0.2119
     12 C          63.5551   87.3332   12.8882 C.ar    1  UNL1        0.2211
     13 O          63.9939   88.7676   12.8860 O.3     1  UNL1       -0.4563
     14 C          64.7105   89.3344   14.0756 C.3     1  UNL1        0.2542
     15 C          61.2587   87.2842    9.6686 C.ar    1  UNL1        0.0213
     16 C          59.8533   87.7319    9.3956 C.ar    1  UNL1       -0.0007
     17 C          59.1187   87.2082    8.1972 C.ar    1  UNL1        0.0030
     18 C          59.7895   86.2367    7.2718 C.ar    1  UNL1        0.0400
     19 C          61.1949   85.7890    7.5448 C.ar    1  UNL1        0.1721
     20 C          61.9294   86.3127    8.7432 C.ar    1  UNL1        0.1687
     21 O          61.8657   84.8176    6.6194 O.3     1  UNL1       -0.4684
     22 C          61.0532   84.0555    5.6148 C.3     1  UNL1        0.2526
     23 O          63.3348   85.8650    9.0161 O.3     1  UNL1       -0.4687
     24 C          63.6374   84.4057    9.1863 C.3     1  UNL1        0.2526
     25 C          62.1662   89.2861   11.0537 C.3     1  UNL1        0.1162
     26 O          63.1461   89.3148    9.9184 O.3     1  UNL1       -0.3820
     27 H          63.4628   90.2223    9.7876 H       1  UNL1        0.2107
     28 C          60.6944   89.3287   14.7391 C.ar    1  UNL1        0.2271
     29 C          61.6743   89.3575   13.6038 C.ar    1  UNL1        0.0559
     30 C          61.1862   89.2574   12.1890 C.ar    1  UNL1        0.0117
     31 C          59.7182   89.1285   11.9095 C.ar    1  UNL1        0.0559
     32 C          58.7382   89.0998   13.0448 C.ar    1  UNL1        0.2271
     33 N          59.2263   89.1999   14.4595 N.ar    1  UNL1       -0.1767
     34 O          61.1825   89.4288   16.1539 O.3     1  UNL1       -0.4602
     35 C          63.0047   87.9234   17.2324 C.3     1  UNL1        0.0512
     36 C          62.6234   89.1583   16.4710 C.3     1  UNL1        0.2072
     37 O          57.2701   88.9709   12.7652 O.3     1  UNL1       -0.4602
     38 C          56.4615   87.9225   13.4703 C.3     1  UNL1        0.2072
     39 C          54.9834   87.8297   13.2327 C.3     1  UNL1        0.0512
     40 C          62.3392   90.7643   11.2404 C.3     1  UNL1        0.0491
     41 C          63.3695   91.5058   10.4413 C.3     1  UNL1        0.0750
     42 N          64.5960   92.0454   11.1155 N.3     1  UNL1       -0.2702
     43 C          64.6528   92.1314   12.6119 C.3     1  UNL1        0.0897
     44 C          65.7657   92.4989   10.2933 C.3     1  UNL1        0.0897
@<TRIPOS>BOND
     1    35    36    1
     2    36    34    1
     3    34    28    1
     4    28    29   ar
     5    29    30   ar
     6    30    25    1
     7    25    26    1
     8    25    40    1
     9    40    41    1
    10    41    42    1
    11    42    43    1
    12    42    44    1
    13    25     1    1
    14     1     2    1
    15     2     3   ar
    16     3     4   ar
    17     4     5   ar
    18     5     6   ar
    19     6     7    1
    20     6     8   ar
    21     8     9   ar
    22     9    10   ar
    23    10    11   ar
    24    11    12   ar
    25    12    13    1
    26    13    14    1
    27     1    15    1
    28    15    16   ar
    29    16    17   ar
    30    17    18   ar
    31    18    19   ar
    32    19    21    1
    33    21    22    1
    34    19    20   ar
    35    20    23    1
    36    23    24    1
    37    30    31   ar
    38    31    32   ar
    39    32    37    1
    40    37    38    1
    41    38    39    1
    42    32    33   ar
    43    33    28   ar
    44    12     2   ar
    45    20    15   ar
    46    10     4   ar
    47    26    27    1
@<TRIPOS>MOLECULE
*****
 44 47 0 0 0
SMALL
GASTEIGER

@<TRIPOS>ATOM
      1 C          61.9810   87.7865   10.8644 C.3     1  UNL1        0.0807
      2 C          62.5364   86.8311   11.8787 C.ar    1  UNL1        0.0375
      3 C          62.0974   85.3968   11.8773 C.ar    1  UNL1        0.0023
      4 C          62.6527   84.4414   12.8915 C.ar    1  UNL1        0.0181
      5 C          62.2137   83.0071   12.8900 C.ar    1  UNL1        0.0082
      6 C          62.7691   82.0517   13.9043 C.ar    1  UNL1        0.0347
      7 BR         62.3300   80.6174   13.9029 Br      1  UNL1       -0.0490
      8 C          63.7635   82.5306   14.9201 C.ar    1  UNL1        0.0082
      9 C          64.2025   83.9649   14.9216 C.ar    1  UNL1        0.0197
     10 C          63.6472   84.9203   13.9073 C.ar    1  UNL1        0.0844
     11 N          64.0862   86.3546   13.9088 N.ar    1  UNL1       -0.2119
     12 C          63.5308   87.3100   12.8945 C.ar    1  UNL1        0.2211
     13 O          63.9699   88.7443   12.8960 O.3     1  UNL1       -0.4563
     14 C          64.6981   89.3045   14.0817 C.3     1  UNL1        0.2542
     15 C          61.2609   87.2636    9.6570 C.ar    1  UNL1        0.0213
     16 C          59.8563   87.7057    9.3716 C.ar    1  UNL1       -0.0007
     17 C          59.1360   87.1828    8.1642 C.ar    1  UNL1        0.0030
     18 C          59.8205   86.2176    7.2422 C.ar    1  UNL1        0.0400
     19 C          61.2252   85.7755    7.5276 C.ar    1  UNL1        0.1721
     20 C          61.9453   86.2984    8.7350 C.ar    1  UNL1        0.1687
     21 O          61.9096   84.8104    6.6056 O.3     1  UNL1       -0.4684
     22 C          61.1079   84.0328    5.6042 C.3     1  UNL1        0.2526
     23 O          63.3499   85.8563    9.0204 O.3     1  UNL1       -0.4687
     24 C          63.6548   84.3992    9.2047 C.3     1  UNL1        0.2526
     25 C          62.1459   89.2649   11.0576 C.3     1  UNL1        0.1162
     26 O          63.1270   89.3036    9.9236 O.3     1  UNL1       -0.3820
     27 H          63.4389   90.2133    9.7969 H       1  UNL1        0.2107
     28 C          58.7170   89.0476   13.0439 C.ar    1  UNL1        0.2271
     29 C          59.6981   89.0863   11.9099 C.ar    1  UNL1        0.0559
     30 C          61.1647   89.2261   12.1915 C.ar    1  UNL1        0.0117
     31 C          61.6503   89.3271   13.6071 C.ar    1  UNL1        0.0559
     32 C          60.6691   89.2883   14.7411 C.ar    1  UNL1        0.2271
     33 N          59.2025   89.1486   14.4595 N.ar    1  UNL1       -0.1767
     34 O          57.2503   88.9078   12.7622 O.3     1  UNL1       -0.4602
     35 C          54.9685   87.7586   13.2342 C.3     1  UNL1        0.0512
     36 C          56.4419   87.8748   13.4899 C.3     1  UNL1        0.2072
     37 O          61.1548   89.3893   16.1568 O.3     1  UNL1       -0.4602
     38 C          62.6130   89.2177   16.4635 C.3     1  UNL1        0.2072
     39 C          63.0816   88.0180   17.2323 C.3     1  UNL1        0.0512
     40 C          62.3107   90.7432   11.2507 C.3     1  UNL1        0.0491
     41 C          63.3446   91.4918   10.4630 C.3     1  UNL1        0.0750
     42 N          64.5462   92.0635   11.1554 N.3     1  UNL1       -0.2702
     43 C          65.6722   92.6405   10.3497 C.3     1  UNL1        0.0897
     44 C          64.6218   92.0583   12.6534 C.3     1  UNL1        0.0897
@<TRIPOS>BOND
     1    35    36    1
     2    36    34    1
     3    34    28    1
     4    28    29   ar
     5    29    30   ar
     6    30    25    1
     7    25    26    1
     8    25    40    1
     9    40    41    1
    10    41    42    1
    11    42    43    1
    12    42    44    1
    13    25     1    1
    14     1     2    1
    15     2     3   ar
    16     3     4   ar
    17     4     5   ar
    18     5     6   ar
    19     6     7    1
    20     6     8   ar
    21     8     9   ar
    22     9    10   ar
    23    10    11   ar
    24    11    12   ar
    25    12    13    1
    26    13    14    1
    27     1    15    1
    28    15    16   ar
    29    16    17   ar
    30    17    18   ar
    31    18    19   ar
    32    19    21    1
    33    21    22    1
    34    19    20   ar
    35    20    23    1
    36    23    24    1
    37    30    31   ar
    38    31    32   ar
    39    32    37    1
    40    37    38    1
    41    38    39    1
    42    32    33   ar
    43    33    28   ar
    44    12     2   ar
    45    20    15   ar
    46    10     4   ar
    47    26    27    1
