@<TRIPOS>MOLECULE
*****
 32 35 0 0 0
SMALL
GASTEIGER

@<TRIPOS>ATOM
      1 C          61.5026   88.4930   10.8871 C.ar    1  UNL1        0.0949
      2 C          60.4046   88.5310    9.8659 C.ar    1  UNL1        0.1454
      3 F          59.4787   89.7095    9.8036 F       1  UNL1       -0.2040
      4 C          60.2326   87.3905    8.9070 C.ar    1  UNL1        0.0312
      5 C          61.1585   86.2120    8.9692 C.ar    1  UNL1        0.0204
      6 C          62.2565   86.1740    9.9905 C.ar    1  UNL1        0.0924
      7 C          62.4285   87.3145   10.9494 C.ar    1  UNL1        0.1598
      8 F          63.5265   87.2766   11.9707 F       1  UNL1       -0.2026
      9 C          61.6747   89.6336   11.8462 C.2     1  UNL1        0.2007
     10 O          60.6954   89.8262   12.9658 O.2     1  UNL1       -0.2866
     11 C          63.8636   90.6528   14.2211 C.2     1  UNL1        0.1360
     12 C          64.9439   91.2491   15.0739 C.2     1  UNL1        0.0837
     13 C          65.9352   92.2004   14.4720 C.2     1  UNL1        0.2385
     14 N          65.8463   92.5555   13.0174 N.2     1  UNL1       -0.0338
     15 C          64.7659   91.9591   12.1646 C.2     1  UNL1        0.3626
     16 N          64.4302   92.1206   10.7116 N.2     1  UNL1       -0.0341
     17 C          63.2314   91.2691   10.4155 C.2     1  UNL1        0.2355
     18 C          62.8262   90.5814   11.6854 C.2     1  UNL1        0.0823
     19 C          63.7746   91.0078   12.7665 C.3     1  UNL1        0.1973
     20 C          63.0071   89.2862   16.2580 C.3     1  UNL1        0.2520
     21 O          62.8722   89.7015   14.8230 O.2     1  UNL1       -0.4746
     22 N          63.1824   84.9955   10.0527 N.pl3   1  UNL1       -0.2128
     23 H          63.9212   84.9153    9.4070 H       1  UNL1        0.1738
     24 S          62.9826   83.9393   11.0988 S.O2    1  UNL1        0.0751
     25 O          63.9852   83.0642   10.4068 O.2     1  UNL1       -0.1499
     26 O          61.9800   84.8143   11.7909 O.2     1  UNL1       -0.1499
     27 C          62.7828   82.8831   12.1450 C.ar    1  UNL1        0.1442
     28 C          62.7601   81.4351   11.7541 C.ar    1  UNL1        0.0234
     29 C          62.5603   80.3788   12.8002 C.ar    1  UNL1        0.0221
     30 C          62.3831   80.7705   14.2372 C.ar    1  UNL1        0.0990
     31 N          62.4058   82.2185   14.6281 N.ar    1  UNL1       -0.2409
     32 C          62.6056   83.2748   13.5820 C.ar    1  UNL1        0.1190
@<TRIPOS>BOND
     1    20    21    1
     2    21    11    1
     3    11    12    2
     4    12    13    1
     5    13    14    2
     6    14    15    1
     7    15    16    2
     8    16    17    1
     9    17    18    2
    10    18     9    1
    11     9    10    2
    12     9     1    1
    13     1     2   ar
    14     2     3    1
    15     2     4   ar
    16     4     5   ar
    17     5     6   ar
    18     6    22    1
    19    22    24    1
    20    24    25    2
    21    24    26    2
    22    24    27    1
    23    27    28   ar
    24    28    29   ar
    25    29    30   ar
    26    30    31   ar
    27    31    32   ar
    28     6     7   ar
    29     7     8    1
    30    18    19    1
    31    19    11    1
    32    19    15    1
    33     7     1   ar
    34    32    27   ar
    35    22    23    1
@<TRIPOS>MOLECULE
*****
 32 35 0 0 0
SMALL
GASTEIGER

@<TRIPOS>ATOM
      1 C          62.6966   86.6379   11.9758 C.ar    1  UNL1        0.0949
      2 C          61.7042   86.2749   10.9112 C.ar    1  UNL1        0.1454
      3 F          61.5073   84.8381   10.5279 F       1  UNL1       -0.2040
      4 C          60.9087   87.3487   10.2300 C.ar    1  UNL1        0.0312
      5 C          61.1055   88.7854   10.6133 C.ar    1  UNL1        0.0204
      6 C          62.0979   89.1485   11.6779 C.ar    1  UNL1        0.0924
      7 C          62.8935   88.0747   12.3591 C.ar    1  UNL1        0.1598
      8 F          63.8859   88.4376   13.4237 F       1  UNL1       -0.2026
      9 C          63.4922   85.5641   12.6571 C.2     1  UNL1        0.2007
     10 O          64.2297   85.8688   13.9271 O.2     1  UNL1       -0.2866
     11 C          62.2038   82.7081   13.9430 C.2     1  UNL1        0.1360
     12 C          61.7346   81.3266   14.2910 C.2     1  UNL1        0.0837
     13 C          62.0264   80.1807   13.3681 C.2     1  UNL1        0.2385
     14 N          62.7874   80.4163   12.0972 N.2     1  UNL1       -0.0338
     15 C          63.2566   81.7978   11.7491 C.2     1  UNL1        0.3626
     16 N          64.0223   82.3316   10.5750 N.2     1  UNL1       -0.0341
     17 C          64.2038   83.8075   10.7721 C.2     1  UNL1        0.2355
     18 C          63.5502   84.1858   12.0682 C.2     1  UNL1        0.0823
     19 C          62.9649   82.9437   12.6720 C.3     1  UNL1        0.1973
     20 C          62.7498   84.0610   16.0927 C.3     1  UNL1        0.2520
     21 O          61.9121   83.8540   14.8658 O.2     1  UNL1       -0.4746
     22 N          62.2948   90.5852   12.0612 N.pl3   1  UNL1       -0.2128
     23 H          61.5411   91.2165   12.0085 H       1  UNL1        0.1738
     24 S          63.6399   91.0602   12.5248 S.O2    1  UNL1        0.0751
     25 O          64.1232   91.0774   11.1049 O.2     1  UNL1       -0.1499
     26 O          63.1566   91.0431   13.9447 O.2     1  UNL1       -0.1499
     27 C          64.9850   91.5352   12.9885 C.ar    1  UNL1        0.1442
     28 C          65.5452   91.0459   14.2911 C.ar    1  UNL1        0.0234
     29 C          66.8903   91.5208   14.7549 C.ar    1  UNL1        0.0221
     30 C          67.6753   92.4852   13.9160 C.ar    1  UNL1        0.0990
     31 N          67.1152   92.9745   12.6134 N.ar    1  UNL1       -0.2409
     32 C          65.7701   92.4996   12.1496 C.ar    1  UNL1        0.1190
@<TRIPOS>BOND
     1    20    21    1
     2    21    11    1
     3    11    12    2
     4    12    13    1
     5    13    14    2
     6    14    15    1
     7    15    16    2
     8    16    17    1
     9    17    18    2
    10    18     9    1
    11     9    10    2
    12     9     1    1
    13     1     2   ar
    14     2     3    1
    15     2     4   ar
    16     4     5   ar
    17     5     6   ar
    18     6    22    1
    19    22    24    1
    20    24    25    2
    21    24    26    2
    22    24    27    1
    23    27    28   ar
    24    28    29   ar
    25    29    30   ar
    26    30    31   ar
    27    31    32   ar
    28     6     7   ar
    29     7     8    1
    30    18    19    1
    31    19    11    1
    32    19    15    1
    33     7     1   ar
    34    32    27   ar
    35    22    23    1
@<TRIPOS>MOLECULE
*****
 32 35 0 0 0
SMALL
GASTEIGER

@<TRIPOS>ATOM
      1 C          63.6587   86.9185   13.2539 C.ar    1  UNL1        0.0949
      2 C          62.9190   86.7332   11.9621 C.ar    1  UNL1        0.1454
      3 F          62.7611   85.3604   11.3785 F       1  UNL1       -0.2040
      4 C          62.3373   87.9206   11.2541 C.ar    1  UNL1        0.0312
      5 C          62.4952   89.2934   11.8377 C.ar    1  UNL1        0.0204
      6 C          63.2349   89.4787   13.1294 C.ar    1  UNL1        0.0924
      7 C          63.8166   88.2912   13.8374 C.ar    1  UNL1        0.1598
      8 F          64.5563   88.4765   15.1292 F       1  UNL1       -0.2026
      9 C          64.2405   85.7309   13.9620 C.2     1  UNL1        0.2007
     10 O          65.7275   85.5991   14.1077 O.2     1  UNL1       -0.2866
     11 C          63.6469   82.6367   12.7196 C.2     1  UNL1        0.1360
     12 C          63.2196   81.2391   12.3818 C.2     1  UNL1        0.0837
     13 C          62.2453   80.5184   13.2657 C.2     1  UNL1        0.2385
     14 N          61.6982   81.1953   14.4874 N.2     1  UNL1       -0.0338
     15 C          62.1255   82.5929   14.8252 C.2     1  UNL1        0.3626
     16 N          61.7587   83.5093   15.9546 N.2     1  UNL1       -0.0341
     17 C          62.5063   84.7964   15.7688 C.2     1  UNL1        0.2355
     18 C          63.3352   84.6754   14.5245 C.2     1  UNL1        0.0823
     19 C          63.0999   83.3136   13.9413 C.3     1  UNL1        0.1973
     20 C          64.5977   83.1318   10.3530 C.3     1  UNL1        0.2520
     21 O          64.6213   83.3574   11.8357 O.2     1  UNL1       -0.4746
     22 N          63.3928   90.8515   13.7130 N.pl3   1  UNL1       -0.2128
     23 H          62.6015   91.4195   13.8561 H       1  UNL1        0.1738
     24 S          64.7562   91.3588   14.0784 S.O2    1  UNL1        0.0751
     25 O          64.3565   91.3917   15.5238 O.2     1  UNL1       -0.1499
     26 O          65.1559   91.3258   12.6331 O.2     1  UNL1       -0.1499
     27 C          66.1197   91.8660   14.4438 C.ar    1  UNL1        0.1442
     28 C          66.3849   92.3720   15.8308 C.ar    1  UNL1        0.0234
     29 C          67.7484   92.8793   16.1963 C.ar    1  UNL1        0.0221
     30 C          68.8467   92.8807   15.1747 C.ar    1  UNL1        0.0990
     31 N          68.5815   92.3747   13.7877 N.ar    1  UNL1       -0.2409
     32 C          67.2181   91.8674   13.4223 C.ar    1  UNL1        0.1190
@<TRIPOS>BOND
     1    20    21    1
     2    21    11    1
     3    11    12    2
     4    12    13    1
     5    13    14    2
     6    14    15    1
     7    15    16    2
     8    16    17    1
     9    17    18    2
    10    18     9    1
    11     9    10    2
    12     9     1    1
    13     1     2   ar
    14     2     3    1
    15     2     4   ar
    16     4     5   ar
    17     5     6   ar
    18     6    22    1
    19    22    24    1
    20    24    25    2
    21    24    26    2
    22    24    27    1
    23    27    28   ar
    24    28    29   ar
    25    29    30   ar
    26    30    31   ar
    27    31    32   ar
    28     6     7   ar
    29     7     8    1
    30    18    19    1
    31    19    11    1
    32    19    15    1
    33     7     1   ar
    34    32    27   ar
    35    22    23    1
@<TRIPOS>MOLECULE
*****
 32 35 0 0 0
SMALL
GASTEIGER

@<TRIPOS>ATOM
      1 C          63.6286   88.9623   15.3961 C.ar    1  UNL1        0.0949
      2 C          63.1606   88.5935   16.7727 C.ar    1  UNL1        0.1454
      3 F          62.6614   89.6570   17.7052 F       1  UNL1       -0.2040
      4 C          63.1918   87.1610   17.2166 C.ar    1  UNL1        0.0312
      5 C          63.6910   86.0975   16.2841 C.ar    1  UNL1        0.0204
      6 C          64.1590   86.4663   14.9075 C.ar    1  UNL1        0.0924
      7 C          64.1277   87.8988   14.4636 C.ar    1  UNL1        0.1598
      8 F          64.5957   88.2677   13.0870 F       1  UNL1       -0.2026
      9 C          63.5974   90.3948   14.9521 C.2     1  UNL1        0.2007
     10 O          63.6174   91.4961   15.9702 O.2     1  UNL1       -0.2866
     11 C          65.7887   92.2699   13.1765 C.2     1  UNL1        0.1360
     12 C          66.5975   93.0469   12.1805 C.2     1  UNL1        0.0837
     13 C          66.1577   93.1165   10.7481 C.2     1  UNL1        0.2385
     14 N          64.9091   92.4091   10.3117 N.2     1  UNL1       -0.0338
     15 C          64.1003   91.6321   11.3077 C.2     1  UNL1        0.3626
     16 N          62.8346   90.8385   11.1723 N.2     1  UNL1       -0.0341
     17 C          62.4921   90.2784   12.5210 C.2     1  UNL1        0.2355
     18 C          63.5462   90.7259   13.4899 C.2     1  UNL1        0.0823
     19 C          64.5400   91.5625   12.7401 C.3     1  UNL1        0.1973
     20 C          67.5801   91.6482   14.9524 C.3     1  UNL1        0.2520
     21 O          66.2284   92.2002   14.6089 O.2     1  UNL1       -0.4746
     22 N          64.6581   85.4028   13.9749 N.pl3   1  UNL1       -0.2128
     23 H          65.4803   85.5511   13.4541 H       1  UNL1        0.1738
     24 S          63.9047   84.1133   13.8360 S.O2    1  UNL1        0.0751
     25 O          64.7940   83.4826   14.8662 O.2     1  UNL1       -0.1499
     26 O          63.0153   84.7439   12.8058 O.2     1  UNL1       -0.1499
     27 C          63.1511   82.8238   13.6970 C.ar    1  UNL1        0.1442
     28 C          63.5453   81.8349   12.6402 C.ar    1  UNL1        0.0234
     29 C          62.7919   80.5454   12.5011 C.ar    1  UNL1        0.0221
     30 C          61.6441   80.2447   13.4188 C.ar    1  UNL1        0.0990
     31 N          61.2499   81.2335   14.4755 N.ar    1  UNL1       -0.2409
     32 C          62.0033   82.5231   14.6146 C.ar    1  UNL1        0.1190
@<TRIPOS>BOND
     1    20    21    1
     2    21    11    1
     3    11    12    2
     4    12    13    1
     5    13    14    2
     6    14    15    1
     7    15    16    2
     8    16    17    1
     9    17    18    2
    10    18     9    1
    11     9    10    2
    12     9     1    1
    13     1     2   ar
    14     2     3    1
    15     2     4   ar
    16     4     5   ar
    17     5     6   ar
    18     6    22    1
    19    22    24    1
    20    24    25    2
    21    24    26    2
    22    24    27    1
    23    27    28   ar
    24    28    29   ar
    25    29    30   ar
    26    30    31   ar
    27    31    32   ar
    28     6     7   ar
    29     7     8    1
    30    18    19    1
    31    19    11    1
    32    19    15    1
    33     7     1   ar
    34    32    27   ar
    35    22    23    1
@<TRIPOS>MOLECULE
*****
 32 35 0 0 0
SMALL
GASTEIGER

@<TRIPOS>ATOM
      1 C          63.7659   88.5699   15.0588 C.ar    1  UNL1        0.0949
      2 C          63.1111   89.1329   16.2852 C.ar    1  UNL1        0.1454
      3 F          62.7577   90.5895   16.3451 F       1  UNL1       -0.2040
      4 C          62.8098   88.2394   17.4518 C.ar    1  UNL1        0.0312
      5 C          63.1633   86.7829   17.3919 C.ar    1  UNL1        0.0204
      6 C          63.8180   86.2198   16.1654 C.ar    1  UNL1        0.0924
      7 C          64.1193   87.1133   14.9989 C.ar    1  UNL1        0.1598
      8 F          64.7741   86.5503   13.7723 F       1  UNL1       -0.2026
      9 C          64.0672   89.4634   13.8921 C.2     1  UNL1        0.2007
     10 O          63.5092   89.1419   12.5375 O.2     1  UNL1       -0.2866
     11 C          64.7742   91.8709   11.6174 C.2     1  UNL1        0.1360
     12 C          65.2336   93.0475   10.8084 C.2     1  UNL1        0.0837
     13 C          66.1336   94.0766   11.4255 C.2     1  UNL1        0.2385
     14 N          66.5744   93.9291   12.8516 N.2     1  UNL1       -0.0338
     15 C          66.1150   92.7525   13.6607 C.2     1  UNL1        0.3626
     16 N          66.3829   92.3434   15.0787 N.2     1  UNL1       -0.0341
     17 C          65.6484   91.0615   15.3381 C.2     1  UNL1        0.2355
     18 C          64.9265   90.6783   14.0803 C.2     1  UNL1        0.0823
     19 C          65.2149   91.7234   13.0436 C.3     1  UNL1        0.1973
     20 C          62.7815   91.2656   10.0641 C.3     1  UNL1        0.2520
     21 O          63.8741   90.8418   11.0003 O.2     1  UNL1       -0.4746
     22 N          64.1715   84.7633   16.1055 N.pl3   1  UNL1       -0.2128
     23 H          64.5739   84.3218   16.8880 H       1  UNL1        0.1738
     24 S          63.9118   83.9794   14.8533 S.O2    1  UNL1        0.0751
     25 O          62.4404   84.0026   15.1439 O.2     1  UNL1       -0.1499
     26 O          65.3831   83.9563   14.5626 O.2     1  UNL1       -0.1499
     27 C          63.6522   83.1955   13.6010 C.ar    1  UNL1        0.1442
     28 C          64.2587   83.6354   12.3015 C.ar    1  UNL1        0.0234
     29 C          63.9992   82.8516   11.0493 C.ar    1  UNL1        0.0221
     30 C          63.1330   81.6278   11.0964 C.ar    1  UNL1        0.0990
     31 N          62.5265   81.1880   12.3959 N.ar    1  UNL1       -0.2409
     32 C          62.7860   81.9718   13.6482 C.ar    1  UNL1        0.1190
@<TRIPOS>BOND
     1    20    21    1
     2    21    11    1
     3    11    12    2
     4    12    13    1
     5    13    14    2
     6    14    15    1
     7    15    16    2
     8    16    17    1
     9    17    18    2
    10    18     9    1
    11     9    10    2
    12     9     1    1
    13     1     2   ar
    14     2     3    1
    15     2     4   ar
    16     4     5   ar
    17     5     6   ar
    18     6    22    1
    19    22    24    1
    20    24    25    2
    21    24    26    2
    22    24    27    1
    23    27    28   ar
    24    28    29   ar
    25    29    30   ar
    26    30    31   ar
    27    31    32   ar
    28     6     7   ar
    29     7     8    1
    30    18    19    1
    31    19    11    1
    32    19    15    1
    33     7     1   ar
    34    32    27   ar
    35    22    23    1
@<TRIPOS>MOLECULE
*****
 32 35 0 0 0
SMALL
GASTEIGER

@<TRIPOS>ATOM
      1 C          64.1061   89.9923   14.3822 C.ar    1  UNL1        0.0949
      2 C          63.5084   90.0992   15.7539 C.ar    1  UNL1        0.1454
      3 F          62.4780   89.1057   16.2025 F       1  UNL1       -0.2040
      4 C          63.9413   91.1995   16.6768 C.ar    1  UNL1        0.0312
      5 C          64.9717   92.1930   16.2281 C.ar    1  UNL1        0.0204
      6 C          65.5693   92.0861   14.8565 C.ar    1  UNL1        0.0924
      7 C          65.1365   90.9857   13.9336 C.ar    1  UNL1        0.1598
      8 F          65.7341   90.8787   12.5619 F       1  UNL1       -0.2026
      9 C          63.6732   88.8919   13.4592 C.2     1  UNL1        0.2007
     10 O          63.9975   87.4651   13.7894 O.2     1  UNL1       -0.2866
     11 C          62.1785   86.7315   11.3218 C.2     1  UNL1        0.1360
     12 C          61.4473   85.9966   10.2377 C.2     1  UNL1        0.0837
     13 C          60.8052   86.7585    9.1165 C.2     1  UNL1        0.2385
     14 N          60.8942   88.2554    9.0794 N.2     1  UNL1       -0.0338
     15 C          61.6254   88.9903   10.1635 C.2     1  UNL1        0.3626
     16 N          61.8773   90.4512   10.3919 N.2     1  UNL1       -0.0341
     17 C          62.6751   90.5922   11.6543 C.2     1  UNL1        0.2355
     18 C          62.9162   89.2184   12.2060 C.2     1  UNL1        0.0823
     19 C          62.2675   88.2283   11.2847 C.3     1  UNL1        0.1973
     20 C          62.8474   84.4701   12.4120 C.3     1  UNL1        0.2520
     21 O          62.8206   85.9695   12.4430 O.2     1  UNL1       -0.4746
     22 N          66.5998   93.0795   14.4078 N.pl3   1  UNL1       -0.2128
     23 H          67.0853   93.6194   15.0727 H       1  UNL1        0.1738
     24 S          66.8904   93.2503   12.9462 S.O2    1  UNL1        0.0751
     25 O          68.0937   92.3651   13.0821 O.2     1  UNL1       -0.1499
     26 O          65.6871   94.1355   12.8104 O.2     1  UNL1       -0.1499
     27 C          67.1810   93.4212   11.4846 C.ar    1  UNL1        0.1442
     28 C          67.9644   92.3750   10.7484 C.ar    1  UNL1        0.0234
     29 C          68.2550   92.5458    9.2868 C.ar    1  UNL1        0.0221
     30 C          67.7623   93.7628    8.5613 C.ar    1  UNL1        0.0990
     31 N          66.9790   94.8089    9.2976 N.ar    1  UNL1       -0.2409
     32 C          66.6883   94.6381   10.7592 C.ar    1  UNL1        0.1190
@<TRIPOS>BOND
     1    20    21    1
     2    21    11    1
     3    11    12    2
     4    12    13    1
     5    13    14    2
     6    14    15    1
     7    15    16    2
     8    16    17    1
     9    17    18    2
    10    18     9    1
    11     9    10    2
    12     9     1    1
    13     1     2   ar
    14     2     3    1
    15     2     4   ar
    16     4     5   ar
    17     5     6   ar
    18     6    22    1
    19    22    24    1
    20    24    25    2
    21    24    26    2
    22    24    27    1
    23    27    28   ar
    24    28    29   ar
    25    29    30   ar
    26    30    31   ar
    27    31    32   ar
    28     6     7   ar
    29     7     8    1
    30    18    19    1
    31    19    11    1
    32    19    15    1
    33     7     1   ar
    34    32    27   ar
    35    22    23    1
@<TRIPOS>MOLECULE
*****
 32 35 0 0 0
SMALL
GASTEIGER

@<TRIPOS>ATOM
      1 C          62.7173   85.3375   10.2441 C.ar    1  UNL1        0.0949
      2 C          62.2281   85.1354    8.8406 C.ar    1  UNL1        0.1454
      3 F          62.5572   83.8694    8.1066 F       1  UNL1       -0.2040
      4 C          61.4098   86.1995    8.1711 C.ar    1  UNL1        0.0312
      5 C          61.0806   87.4655    8.9051 C.ar    1  UNL1        0.0204
      6 C          61.5698   87.6676   10.3087 C.ar    1  UNL1        0.0924
      7 C          62.3881   86.6036   10.9781 C.ar    1  UNL1        0.1598
      8 F          62.8774   86.8056   12.3816 F       1  UNL1       -0.2026
      9 C          63.5356   84.2735   10.9136 C.2     1  UNL1        0.2007
     10 O          64.7211   83.6843   10.2084 O.2     1  UNL1       -0.2866
     11 C          62.8079   81.1119   11.8859 C.2     1  UNL1        0.1360
     12 C          62.4522   79.8207   12.5613 C.2     1  UNL1        0.0837
     13 C          62.1412   79.8026   14.0285 C.2     1  UNL1        0.2385
     14 N          62.1858   81.0757   14.8204 N.2     1  UNL1       -0.0338
     15 C          62.5415   82.3669   14.1451 C.2     1  UNL1        0.3626
     16 N          62.6652   83.7694   14.6624 N.2     1  UNL1       -0.0341
     17 C          63.0526   84.6544   13.5149 C.2     1  UNL1        0.2355
     18 C          63.1684   83.7987   12.2883 C.2     1  UNL1        0.0823
     19 C          62.8525   82.3850   12.6778 C.3     1  UNL1        0.1973
     20 C          62.9738   79.8778    9.6056 C.3     1  UNL1        0.2520
     21 O          63.1189   81.1300   10.4186 O.2     1  UNL1       -0.4746
     22 N          61.2407   88.9336   11.0427 N.pl3   1  UNL1       -0.2128
     23 H          60.3076   89.1341   11.2845 H       1  UNL1        0.1738
     24 S          62.3332   89.8943   11.4082 S.O2    1  UNL1        0.0751
     25 O          62.6299   90.1103    9.9538 O.2     1  UNL1       -0.1499
     26 O          62.0365   89.6783   12.8626 O.2     1  UNL1       -0.1499
     27 C          63.4256   90.8549   11.7738 C.ar    1  UNL1        0.1442
     28 C          64.1148   91.6494   10.7042 C.ar    1  UNL1        0.0234
     29 C          65.2072   92.6100   11.0697 C.ar    1  UNL1        0.0221
     30 C          65.6106   92.7763   12.5049 C.ar    1  UNL1        0.0990
     31 N          64.9215   91.9818   13.5744 N.ar    1  UNL1       -0.2409
     32 C          63.8290   91.0211   13.2089 C.ar    1  UNL1        0.1190
@<TRIPOS>BOND
     1    20    21    1
     2    21    11    1
     3    11    12    2
     4    12    13    1
     5    13    14    2
     6    14    15    1
     7    15    16    2
     8    16    17    1
     9    17    18    2
    10    18     9    1
    11     9    10    2
    12     9     1    1
    13     1     2   ar
    14     2     3    1
    15     2     4   ar
    16     4     5   ar
    17     5     6   ar
    18     6    22    1
    19    22    24    1
    20    24    25    2
    21    24    26    2
    22    24    27    1
    23    27    28   ar
    24    28    29   ar
    25    29    30   ar
    26    30    31   ar
    27    31    32   ar
    28     6     7   ar
    29     7     8    1
    30    18    19    1
    31    19    11    1
    32    19    15    1
    33     7     1   ar
    34    32    27   ar
    35    22    23    1
@<TRIPOS>MOLECULE
*****
 32 35 0 0 0
SMALL
GASTEIGER

@<TRIPOS>ATOM
      1 C          63.6048   86.3056   13.0732 C.ar    1  UNL1        0.0949
      2 C          62.8063   86.2224   11.8061 C.ar    1  UNL1        0.1454
      3 F          62.5458   84.8893   11.1699 F       1  UNL1       -0.2040
      4 C          62.2683   87.4725   11.1754 C.ar    1  UNL1        0.0312
      5 C          62.5288   88.8056   11.8116 C.ar    1  UNL1        0.0204
      6 C          63.3273   88.8888   13.0787 C.ar    1  UNL1        0.0924
      7 C          63.8652   87.6387   13.7094 C.ar    1  UNL1        0.1598
      8 F          64.6638   87.7218   14.9766 F       1  UNL1       -0.2026
      9 C          64.1428   85.0555   13.7041 C.2     1  UNL1        0.2007
     10 O          65.6208   84.8900   13.8988 O.2     1  UNL1       -0.2866
     11 C          63.6959   82.0111   12.2890 C.2     1  UNL1        0.1360
     12 C          63.3157   80.6257   11.8579 C.2     1  UNL1        0.0837
     13 C          62.2746   79.8619   12.6213 C.2     1  UNL1        0.2385
     14 N          61.6138   80.4836   13.8158 N.2     1  UNL1       -0.0338
     15 C          61.9940   81.8690   14.2469 C.2     1  UNL1        0.3626
     16 N          61.5183   82.7352   15.3754 N.2     1  UNL1       -0.0341
     17 C          62.2653   84.0342   15.3094 C.2     1  UNL1        0.2355
     18 C          63.2027   83.9710   14.1401 C.2     1  UNL1        0.0823
     19 C          63.0351   82.6328   13.4834 C.3     1  UNL1        0.1973
     20 C          64.5208   83.0934   10.0758 C.3     1  UNL1        0.2520
     21 O          64.7370   82.7749   11.5255 O.2     1  UNL1       -0.4746
     22 N          63.5878   90.2220   13.7149 N.pl3   1  UNL1       -0.2128
     23 H          63.2339   90.4164   14.6128 H       1  UNL1        0.1738
     24 S          64.3873   91.2588   12.9831 S.O2    1  UNL1        0.0751
     25 O          65.4649   91.1611   14.0220 O.2     1  UNL1       -0.1499
     26 O          63.3098   91.3565   11.9442 O.2     1  UNL1       -0.1499
     27 C          65.1868   92.2956   12.2512 C.ar    1  UNL1        0.1442
     28 C          65.0739   92.4153   10.7602 C.ar    1  UNL1        0.0234
     29 C          65.8734   93.4521   10.0282 C.ar    1  UNL1        0.0221
     30 C          66.7858   94.3694   10.7872 C.ar    1  UNL1        0.0990
     31 N          66.8987   94.2497   12.2782 N.ar    1  UNL1       -0.2409
     32 C          66.0993   93.2129   13.0102 C.ar    1  UNL1        0.1190
@<TRIPOS>BOND
     1    20    21    1
     2    21    11    1
     3    11    12    2
     4    12    13    1
     5    13    14    2
     6    14    15    1
     7    15    16    2
     8    16    17    1
     9    17    18    2
    10    18     9    1
    11     9    10    2
    12     9     1    1
    13     1     2   ar
    14     2     3    1
    15     2     4   ar
    16     4     5   ar
    17     5     6   ar
    18     6    22    1
    19    22    24    1
    20    24    25    2
    21    24    26    2
    22    24    27    1
    23    27    28   ar
    24    28    29   ar
    25    29    30   ar
    26    30    31   ar
    27    31    32   ar
    28     6     7   ar
    29     7     8    1
    30    18    19    1
    31    19    11    1
    32    19    15    1
    33     7     1   ar
    34    32    27   ar
    35    22    23    1
@<TRIPOS>MOLECULE
*****
 32 35 0 0 0
SMALL
GASTEIGER

@<TRIPOS>ATOM
      1 C          63.8596   86.9127   13.5292 C.ar    1  UNL1        0.0949
      2 C          64.3783   88.1866   14.1276 C.ar    1  UNL1        0.1454
      3 F          65.3919   88.1381   15.2323 F       1  UNL1       -0.2040
      4 C          63.8834   89.5090   13.6212 C.ar    1  UNL1        0.0312
      5 C          62.8699   89.5574   12.5165 C.ar    1  UNL1        0.0204
      6 C          62.3512   88.2835   11.9181 C.ar    1  UNL1        0.0924
      7 C          62.8461   86.9612   12.4245 C.ar    1  UNL1        0.1598
      8 F          62.3274   85.6872   11.8261 F       1  UNL1       -0.2026
      9 C          64.3545   85.5902   14.0355 C.2     1  UNL1        0.2007
     10 O          65.8227   85.2840   14.0224 O.2     1  UNL1       -0.2866
     11 C          63.5852   82.5813   12.6847 C.2     1  UNL1        0.1360
     12 C          63.0766   81.2246   12.2966 C.2     1  UNL1        0.0837
     13 C          62.0515   80.5360   13.1481 C.2     1  UNL1        0.2385
     14 N          61.5350   81.2042   14.3877 N.2     1  UNL1       -0.0338
     15 C          62.0435   82.5609   14.7758 C.2     1  UNL1        0.3626
     16 N          61.7223   83.4600   15.9327 N.2     1  UNL1       -0.0341
     17 C          62.5489   84.7042   15.7962 C.2     1  UNL1        0.2355
     18 C          63.3810   84.5741   14.5550 C.2     1  UNL1        0.0823
     19 C          63.0686   83.2494   13.9243 C.3     1  UNL1        0.1973
     20 C          64.4700   83.2658   10.3398 C.3     1  UNL1        0.2520
     21 O          64.6103   83.2698   11.8332 O.2     1  UNL1       -0.4746
     22 N          61.3376   88.3320   10.8134 N.pl3   1  UNL1       -0.2128
     23 H          60.6288   89.0151   10.8254 H       1  UNL1        0.1738
     24 S          61.4042   87.3398    9.6905 S.O2    1  UNL1        0.0751
     25 O          59.9998   86.9063    9.9904 O.2     1  UNL1       -0.1499
     26 O          62.8085   87.7732    9.3907 O.2     1  UNL1       -0.1499
     27 C          61.4708   86.3476    8.5676 C.ar    1  UNL1        0.1442
     28 C          62.7686   85.6698    8.2416 C.ar    1  UNL1        0.0234
     29 C          62.8354   84.6776    7.1186 C.ar    1  UNL1        0.0221
     30 C          61.6042   84.3630    6.3216 C.ar    1  UNL1        0.0990
     31 N          60.3063   85.0408    6.6477 N.ar    1  UNL1       -0.2409
     32 C          60.2396   86.0330    7.7706 C.ar    1  UNL1        0.1190
@<TRIPOS>BOND
     1    20    21    1
     2    21    11    1
     3    11    12    2
     4    12    13    1
     5    13    14    2
     6    14    15    1
     7    15    16    2
     8    16    17    1
     9    17    18    2
    10    18     9    1
    11     9    10    2
    12     9     1    1
    13     1     2   ar
    14     2     3    1
    15     2     4   ar
    16     4     5   ar
    17     5     6   ar
    18     6    22    1
    19    22    24    1
    20    24    25    2
    21    24    26    2
    22    24    27    1
    23    27    28   ar
    24    28    29   ar
    25    29    30   ar
    26    30    31   ar
    27    31    32   ar
    28     6     7   ar
    29     7     8    1
    30    18    19    1
    31    19    11    1
    32    19    15    1
    33     7     1   ar
    34    32    27   ar
    35    22    23    1
