@<TRIPOS>MOLECULE
*****
 26 27 0 0 0
SMALL
GASTEIGER

@<TRIPOS>ATOM
      1 C          61.9875   87.1568   11.0692 C.ar    1  UNL1        0.0527
      2 C          60.9638   88.0575   10.4440 C.ar    1  UNL1        0.1091
      3 N          61.1423   89.4314   11.0188 N.ar    1  UNL1       -0.2035
      4 C          62.2763   89.3800   11.9992 C.ar    1  UNL1        0.2628
      5 S          62.7987   87.9742   12.0304 S.2     1  UNL1       -0.0283
      6 C          63.0262   84.8558   11.6829 C.2     1  UNL1       -0.0063
      7 C          62.1683   85.6955   10.7834 C.2     1  UNL1        0.0052
      8 C          63.2070   83.3945   11.3971 C.3     1  UNL1        0.0971
      9 C          64.1255   82.9536   10.2962 C.3     1  UNL1        0.0263
     10 C          62.8923   82.0931   13.6236 C.2     1  UNL1        0.4019
     11 O          64.0531   82.8326   14.2199 O.2     1  UNL1       -0.2264
     12 N          62.4692   82.3740   12.2122 N.am    1  UNL1       -0.2685
     13 H          61.7073   81.8886   11.8208 H       1  UNL1        0.1530
     14 C          60.7337   80.7288   14.1025 C.3     1  UNL1        0.2573
     15 O          62.1546   81.0727   14.4386 O.3     1  UNL1       -0.4306
     16 O          62.7966   90.5320   12.8067 O.3     1  UNL1       -0.4313
     17 C          63.9767   91.3184   12.3177 C.ar    1  UNL1        0.1479
     18 C          65.0779   91.6869   13.2671 C.ar    1  UNL1        0.0407
     19 C          66.2579   92.4732   12.7781 C.ar    1  UNL1        0.0400
     20 C          66.3366   92.8911   11.3396 C.ar    1  UNL1        0.1386
     21 C          65.2354   92.5227   10.3902 C.ar    1  UNL1        0.0400
     22 C          64.0554   91.7363   10.8793 C.ar    1  UNL1        0.0407
     23 O          67.5167   93.6776   10.8506 O.3     1  UNL1       -0.4792
     24 C          67.9131   93.6146    9.4053 C.3     1  UNL1        0.1661
     25 C          68.6760   92.4314    8.8877 C.3     1  UNL1        0.0472
     26 C          67.5466   94.7349    8.4777 C.3     1  UNL1        0.0472
@<TRIPOS>BOND
     1    14    15    1
     2    15    10    1
     3    10    11    2
     4    10    12   am
     5    12     8    1
     6     8     9    1
     7     8     6    1
     8     6     7    2
     9     7     1    1
    10     1     2   ar
    11     2     3   ar
    12     3     4   ar
    13     4    16    1
    14    16    17    1
    15    17    18   ar
    16    18    19   ar
    17    19    20   ar
    18    20    23    1
    19    23    24    1
    20    24    25    1
    21    24    26    1
    22    20    21   ar
    23    21    22   ar
    24     4     5   ar
    25     5     1   ar
    26    22    17   ar
    27    12    13    1
@<TRIPOS>MOLECULE
*****
 26 27 0 0 0
SMALL
GASTEIGER

@<TRIPOS>ATOM
      1 C          64.3756   90.5999   13.4725 C.ar    1  UNL1        0.0527
      2 C          63.6614   89.6791   12.5279 C.ar    1  UNL1        0.1091
      3 N          63.3720   88.4006   13.2569 N.ar    1  UNL1       -0.2035
      4 C          63.9073   88.5311   14.6521 C.ar    1  UNL1        0.2628
      5 S          64.5275   89.8904   14.7853 S.2     1  UNL1       -0.0283
      6 C          65.3474   92.3166   11.7817 C.2     1  UNL1       -0.0063
      7 C          64.8538   91.9867   13.1592 C.2     1  UNL1        0.0052
      8 C          65.8256   93.7034   11.4685 C.3     1  UNL1        0.0971
      9 C          66.4058   94.5599   12.5547 C.3     1  UNL1        0.0263
     10 C          66.9672   94.4727    9.2651 C.2     1  UNL1        0.4019
     11 O          68.3128   94.1814    9.8606 O.2     1  UNL1       -0.2264
     12 N          65.7236   94.2336   10.0691 N.am    1  UNL1       -0.2685
     13 H          64.8404   94.4248    9.6783 H       1  UNL1        0.1530
     14 C          66.3605   96.3950    7.6260 C.3     1  UNL1        0.2573
     15 O          66.8652   95.0029    7.8658 O.3     1  UNL1       -0.4306
     16 O          63.8350   87.4859   15.7255 O.3     1  UNL1       -0.4313
     17 C          63.8412   86.0316   15.3579 C.ar    1  UNL1        0.1479
     18 C          64.9547   85.4741   14.5218 C.ar    1  UNL1        0.0407
     19 C          64.9609   84.0199   14.1542 C.ar    1  UNL1        0.0400
     20 C          63.8535   83.1231   14.6229 C.ar    1  UNL1        0.1386
     21 C          62.7400   83.6806   15.4591 C.ar    1  UNL1        0.0400
     22 C          62.7339   85.1349   15.8266 C.ar    1  UNL1        0.0407
     23 O          63.8597   81.6688   14.2553 O.3     1  UNL1       -0.4792
     24 C          62.9510   81.1648   13.1737 C.3     1  UNL1        0.1661
     25 C          63.0027   81.7765   11.8050 C.3     1  UNL1        0.0472
     26 C          61.9905   80.0489   13.4606 C.3     1  UNL1        0.0472
@<TRIPOS>BOND
     1    14    15    1
     2    15    10    1
     3    10    11    2
     4    10    12   am
     5    12     8    1
     6     8     9    1
     7     8     6    1
     8     6     7    2
     9     7     1    1
    10     1     2   ar
    11     2     3   ar
    12     3     4   ar
    13     4    16    1
    14    16    17    1
    15    17    18   ar
    16    18    19   ar
    17    19    20   ar
    18    20    23    1
    19    23    24    1
    20    24    25    1
    21    24    26    1
    22    20    21   ar
    23    21    22   ar
    24     4     5   ar
    25     5     1   ar
    26    22    17   ar
    27    12    13    1
@<TRIPOS>MOLECULE
*****
 26 27 0 0 0
SMALL
GASTEIGER

@<TRIPOS>ATOM
      1 C          62.1813   90.4866   10.8371 C.ar    1  UNL1        0.0527
      2 C          60.6848   90.5861   10.8111 C.ar    1  UNL1        0.1091
      3 N          60.1473   89.3296   10.1929 N.ar    1  UNL1       -0.2035
      4 C          61.3116   88.4534    9.8368 C.ar    1  UNL1        0.2628
      5 S          62.5686   89.1685   10.2350 S.2     1  UNL1       -0.0283
      6 C          64.3738   91.8625   10.6132 C.2     1  UNL1       -0.0063
      7 C          63.1247   91.5232   11.3714 C.2     1  UNL1        0.0052
      8 C          65.3172   92.8990   11.1475 C.3     1  UNL1        0.0971
      9 C          65.7112   92.8797   12.5948 C.3     1  UNL1        0.0263
     10 C          67.2805   93.8596    9.7431 C.2     1  UNL1        0.4019
     11 O          68.1451   92.7085   10.1646 O.2     1  UNL1       -0.2264
     12 N          65.8666   93.9548   10.2346 N.am    1  UNL1       -0.2685
     13 H          65.2991   94.7103    9.9580 H       1  UNL1        0.1530
     14 C          67.0161   96.1367    8.5204 C.3     1  UNL1        0.2573
     15 O          67.8300   94.9153    8.8303 O.3     1  UNL1       -0.4306
     16 O          61.2327   87.0999    9.1953 O.3     1  UNL1       -0.4313
     17 C          61.9751   85.9419    9.7935 C.ar    1  UNL1        0.1479
     18 C          61.7838   85.5951   11.2402 C.ar    1  UNL1        0.0407
     19 C          62.5263   84.4371   11.8384 C.ar    1  UNL1        0.0400
     20 C          63.4601   83.6260   10.9898 C.ar    1  UNL1        0.1386
     21 C          63.6514   83.9728    9.5431 C.ar    1  UNL1        0.0400
     22 C          62.9089   85.1307    8.9449 C.ar    1  UNL1        0.0407
     23 O          64.2025   82.4679   11.5881 O.3     1  UNL1       -0.4792
     24 C          63.5676   81.6499   12.6732 C.3     1  UNL1        0.1661
     25 C          63.7856   82.0140   14.1120 C.3     1  UNL1        0.0472
     26 C          62.7146   80.4678   12.3197 C.3     1  UNL1        0.0472
@<TRIPOS>BOND
     1    14    15    1
     2    15    10    1
     3    10    11    2
     4    10    12   am
     5    12     8    1
     6     8     9    1
     7     8     6    1
     8     6     7    2
     9     7     1    1
    10     1     2   ar
    11     2     3   ar
    12     3     4   ar
    13     4    16    1
    14    16    17    1
    15    17    18   ar
    16    18    19   ar
    17    19    20   ar
    18    20    23    1
    19    23    24    1
    20    24    25    1
    21    24    26    1
    22    20    21   ar
    23    21    22   ar
    24     4     5   ar
    25     5     1   ar
    26    22    17   ar
    27    12    13    1
@<TRIPOS>MOLECULE
*****
 26 27 0 0 0
SMALL
GASTEIGER

@<TRIPOS>ATOM
      1 C          61.6386   87.0466   10.3885 C.ar    1  UNL1        0.0527
      2 C          60.4751   87.6874    9.6915 C.ar    1  UNL1        0.1091
      3 N          60.4591   89.1419   10.0580 N.ar    1  UNL1       -0.2035
      4 C          61.6127   89.4000   10.9814 C.ar    1  UNL1        0.2628
      5 S          62.3416   88.1050   11.1856 S.2     1  UNL1       -0.0283
      6 C          62.8051   84.9669   11.4201 C.2     1  UNL1       -0.0063
      7 C          62.0302   85.6011   10.3032 C.2     1  UNL1        0.0052
      8 C          63.1967   83.5214   11.3348 C.3     1  UNL1        0.0971
      9 C          64.2699   83.0902   10.3796 C.3     1  UNL1        0.0263
     10 C          62.9774   82.2983   13.6164 C.2     1  UNL1        0.4019
     11 O          64.1211   83.1036   14.1581 O.2     1  UNL1       -0.2264
     12 N          62.5152   82.5072   12.2048 N.am    1  UNL1       -0.2685
     13 H          61.7645   81.9786   11.8493 H       1  UNL1        0.1530
     14 C          60.9057   80.8266   14.1574 C.3     1  UNL1        0.2573
     15 O          62.2959   81.2841   14.4864 O.3     1  UNL1       -0.4306
     16 O          61.9738   90.7210   11.5931 O.3     1  UNL1       -0.4313
     17 C          63.2824   90.8837   12.3083 C.ar    1  UNL1        0.1479
     18 C          63.5400   90.1326   13.5808 C.ar    1  UNL1        0.0407
     19 C          64.8485   90.2953   14.2959 C.ar    1  UNL1        0.0400
     20 C          65.8993   91.2092   13.7385 C.ar    1  UNL1        0.1386
     21 C          65.6416   91.9603   12.4660 C.ar    1  UNL1        0.0400
     22 C          64.3331   91.7976   11.7509 C.ar    1  UNL1        0.0407
     23 O          67.2078   91.3719   14.4537 O.3     1  UNL1       -0.4792
     24 C          67.3509   92.4074   15.5293 C.3     1  UNL1        0.1661
     25 C          68.6660   93.0995   15.7340 C.3     1  UNL1        0.0472
     26 C          66.1790   92.7510   16.4003 C.3     1  UNL1        0.0472
@<TRIPOS>BOND
     1    14    15    1
     2    15    10    1
     3    10    11    2
     4    10    12   am
     5    12     8    1
     6     8     9    1
     7     8     6    1
     8     6     7    2
     9     7     1    1
    10     1     2   ar
    11     2     3   ar
    12     3     4   ar
    13     4    16    1
    14    16    17    1
    15    17    18   ar
    16    18    19   ar
    17    19    20   ar
    18    20    23    1
    19    23    24    1
    20    24    25    1
    21    24    26    1
    22    20    21   ar
    23    21    22   ar
    24     4     5   ar
    25     5     1   ar
    26    22    17   ar
    27    12    13    1
@<TRIPOS>MOLECULE
*****
 26 27 0 0 0
SMALL
GASTEIGER

@<TRIPOS>ATOM
      1 C          62.3867   90.5143   11.0183 C.ar    1  UNL1        0.0527
      2 C          60.9245   90.7636   10.7945 C.ar    1  UNL1        0.1091
      3 N          60.3535   89.5697   10.0885 N.ar    1  UNL1       -0.2035
      4 C          61.4627   88.5825    9.8760 C.ar    1  UNL1        0.2628
      5 S          62.7192   89.1663   10.4507 S.2     1  UNL1       -0.0283
      6 C          64.5480   91.9543   10.9478 C.2     1  UNL1       -0.0063
      7 C          63.3475   91.4489   11.6916 C.2     1  UNL1        0.0052
      8 C          65.5088   92.8889   11.6211 C.3     1  UNL1        0.0971
      9 C          66.1602   93.9886   10.8359 C.3     1  UNL1        0.0263
     10 C          67.1740   92.2472   13.5093 C.2     1  UNL1        0.4019
     11 O          68.2204   91.9357   12.4806 O.2     1  UNL1       -0.2264
     12 N          65.8183   92.7238   13.0795 N.am    1  UNL1       -0.2685
     13 H          65.1315   92.9283   13.7546 H       1  UNL1        0.1530
     14 C          67.8894   93.2709   15.7876 C.3     1  UNL1        0.2573
     15 O          67.4835   92.0821   14.9676 O.3     1  UNL1       -0.4306
     16 O          61.3373   87.2461    9.2064 O.3     1  UNL1       -0.4313
     17 C          62.0306   86.0488    9.7860 C.ar    1  UNL1        0.1479
     18 C          61.8043   85.6725   11.2203 C.ar    1  UNL1        0.0407
     19 C          62.4975   84.4752   11.7998 C.ar    1  UNL1        0.0400
     20 C          63.4170   83.6543   10.9451 C.ar    1  UNL1        0.1386
     21 C          63.6433   84.0306    9.5108 C.ar    1  UNL1        0.0400
     22 C          62.9501   85.2278    8.9313 C.ar    1  UNL1        0.0407
     23 O          64.1103   82.4569   11.5247 O.3     1  UNL1       -0.4792
     24 C          63.5248   81.7537   12.7132 C.3     1  UNL1        0.1661
     25 C          62.6784   80.5305   12.5190 C.3     1  UNL1        0.0472
     26 C          63.7857   82.2734   14.0959 C.3     1  UNL1        0.0472
@<TRIPOS>BOND
     1    14    15    1
     2    15    10    1
     3    10    11    2
     4    10    12   am
     5    12     8    1
     6     8     9    1
     7     8     6    1
     8     6     7    2
     9     7     1    1
    10     1     2   ar
    11     2     3   ar
    12     3     4   ar
    13     4    16    1
    14    16    17    1
    15    17    18   ar
    16    18    19   ar
    17    19    20   ar
    18    20    23    1
    19    23    24    1
    20    24    25    1
    21    24    26    1
    22    20    21   ar
    23    21    22   ar
    24     4     5   ar
    25     5     1   ar
    26    22    17   ar
    27    12    13    1
@<TRIPOS>MOLECULE
*****
 26 27 0 0 0
SMALL
GASTEIGER

@<TRIPOS>ATOM
      1 C          63.9461   86.6057   14.7578 C.ar    1  UNL1        0.0527
      2 C          63.4518   86.7179   16.1697 C.ar    1  UNL1        0.1091
      3 N          63.3730   88.1746   16.5188 N.ar    1  UNL1       -0.2035
      4 C          63.8186   88.9626   15.3228 C.ar    1  UNL1        0.2628
      5 S          64.1728   87.9930   14.2345 S.2     1  UNL1       -0.0283
      6 C          63.1851   84.8860   12.9651 C.2     1  UNL1       -0.0063
      7 C          64.1737   85.3301   14.0022 C.2     1  UNL1        0.0052
      8 C          63.4127   83.6105   12.2095 C.3     1  UNL1        0.0971
      9 C          64.5534   83.5058   11.2410 C.3     1  UNL1        0.0263
     10 C          62.6859   81.5506   13.6160 C.2     1  UNL1        0.4019
     11 O          63.7852   81.8325   14.5969 O.2     1  UNL1       -0.2264
     12 N          62.4997   82.4395   12.4223 N.am    1  UNL1       -0.2685
     13 H          61.7782   82.2545   11.7785 H       1  UNL1        0.1530
     14 C          60.3231   80.6058   14.1401 C.3     1  UNL1        0.2573
     15 O          61.7730   80.3797   13.8289 O.3     1  UNL1       -0.4306
     16 O          63.8963   90.4578   15.2312 O.3     1  UNL1       -0.4313
     17 C          64.7492   91.1014   14.1783 C.ar    1  UNL1        0.1479
     18 C          66.1765   91.4504   14.4794 C.ar    1  UNL1        0.0407
     19 C          67.0293   92.0940   13.4265 C.ar    1  UNL1        0.0400
     20 C          66.4547   92.3885   12.0726 C.ar    1  UNL1        0.1386
     21 C          65.0273   92.0395   11.7715 C.ar    1  UNL1        0.0400
     22 C          64.1746   91.3959   12.8244 C.ar    1  UNL1        0.0407
     23 O          67.3076   93.0321   11.0197 O.3     1  UNL1       -0.4792
     24 C          66.9544   94.3929   10.4969 C.3     1  UNL1        0.1661
     25 C          66.2054   95.3592   11.3661 C.3     1  UNL1        0.0472
     26 C          67.3501   94.7876    9.1049 C.3     1  UNL1        0.0472
@<TRIPOS>BOND
     1    14    15    1
     2    15    10    1
     3    10    11    2
     4    10    12   am
     5    12     8    1
     6     8     9    1
     7     8     6    1
     8     6     7    2
     9     7     1    1
    10     1     2   ar
    11     2     3   ar
    12     3     4   ar
    13     4    16    1
    14    16    17    1
    15    17    18   ar
    16    18    19   ar
    17    19    20   ar
    18    20    23    1
    19    23    24    1
    20    24    25    1
    21    24    26    1
    22    20    21   ar
    23    21    22   ar
    24     4     5   ar
    25     5     1   ar
    26    22    17   ar
    27    12    13    1
@<TRIPOS>MOLECULE
*****
 26 27 0 0 0
SMALL
GASTEIGER

@<TRIPOS>ATOM
      1 C          62.4921   90.0681   11.5293 C.ar    1  UNL1        0.0527
      2 C          61.4508   90.6441   10.6160 C.ar    1  UNL1        0.1091
      3 N          61.0398   89.5740    9.6485 N.ar    1  UNL1       -0.2035
      4 C          61.8269   88.3367    9.9638 C.ar    1  UNL1        0.2628
      5 S          62.7245   88.6421   11.1262 S.2     1  UNL1       -0.0283
      6 C          64.0005   90.0253   13.6442 C.2     1  UNL1       -0.0063
      7 C          63.1801   90.7911   12.6490 C.2     1  UNL1        0.0052
      8 C          64.6885   90.7483   14.7640 C.3     1  UNL1        0.0971
      9 C          63.9338   91.0827   16.0164 C.3     1  UNL1        0.0263
     10 C          66.5153   92.3183   13.7904 C.2     1  UNL1        0.4019
     11 O          65.4567   93.1109   13.0824 O.2     1  UNL1       -0.2264
     12 N          66.1311   91.1370   14.6312 N.am    1  UNL1       -0.2685
     13 H          66.8259   90.6168   15.0959 H       1  UNL1        0.1530
     14 C          68.8954   92.5169   14.8131 C.3     1  UNL1        0.2573
     15 O          67.9578   92.7070   13.6576 O.3     1  UNL1       -0.4306
     16 O          61.7330   87.0245    9.2432 O.3     1  UNL1       -0.4313
     17 C          62.3011   85.7841    9.8668 C.ar    1  UNL1        0.1479
     18 C          61.9340   85.4163   11.2738 C.ar    1  UNL1        0.0407
     19 C          62.5022   84.1760   11.8973 C.ar    1  UNL1        0.0400
     20 C          63.4374   83.3034   11.1137 C.ar    1  UNL1        0.1386
     21 C          63.8045   83.6712    9.7066 C.ar    1  UNL1        0.0400
     22 C          63.2363   84.9116    9.0831 C.ar    1  UNL1        0.0407
     23 O          64.0055   82.0630   11.7372 O.3     1  UNL1       -0.4792
     24 C          63.3947   81.5053   12.9885 C.3     1  UNL1        0.1661
     25 C          63.6718   82.1546   14.3121 C.3     1  UNL1        0.0472
     26 C          62.5069   80.2985   12.9164 C.3     1  UNL1        0.0472
@<TRIPOS>BOND
     1    14    15    1
     2    15    10    1
     3    10    11    2
     4    10    12   am
     5    12     8    1
     6     8     9    1
     7     8     6    1
     8     6     7    2
     9     7     1    1
    10     1     2   ar
    11     2     3   ar
    12     3     4   ar
    13     4    16    1
    14    16    17    1
    15    17    18   ar
    16    18    19   ar
    17    19    20   ar
    18    20    23    1
    19    23    24    1
    20    24    25    1
    21    24    26    1
    22    20    21   ar
    23    21    22   ar
    24     4     5   ar
    25     5     1   ar
    26    22    17   ar
    27    12    13    1
@<TRIPOS>MOLECULE
*****
 26 27 0 0 0
SMALL
GASTEIGER

@<TRIPOS>ATOM
      1 C          63.8289   86.0917   14.9993 C.ar    1  UNL1        0.0527
      2 C          63.2649   86.2043   16.3847 C.ar    1  UNL1        0.1091
      3 N          63.2766   87.6530   16.7736 N.ar    1  UNL1       -0.2035
      4 C          63.8478   88.4357   15.6286 C.ar    1  UNL1        0.2628
      5 S          64.1891   87.4708   14.5320 S.2     1  UNL1       -0.0283
      6 C          63.2650   84.6308   12.9261 C.2     1  UNL1       -0.0063
      7 C          64.0021   84.8228   14.2184 C.2     1  UNL1        0.0052
      8 C          63.4383   83.3620   12.1452 C.3     1  UNL1        0.0971
      9 C          64.6050   83.2071   11.2151 C.3     1  UNL1        0.0263
     10 C          62.5686   81.2805   13.4340 C.2     1  UNL1        0.4019
     11 O          63.6855   81.4271   14.4244 O.2     1  UNL1       -0.2264
     12 N          62.4450   82.2480   12.2943 N.am    1  UNL1       -0.2685
     13 H          61.7119   82.1518   11.6442 H       1  UNL1        0.1530
     14 C          60.2132   80.4464   14.1459 C.3     1  UNL1        0.2573
     15 O          61.5753   80.1665   13.5832 O.3     1  UNL1       -0.4306
     16 O          64.0433   89.9223   15.5873 O.3     1  UNL1       -0.4313
     17 C          64.3505   90.6026   14.2862 C.ar    1  UNL1        0.1479
     18 C          63.3781   90.5171   13.1473 C.ar    1  UNL1        0.0407
     19 C          63.6853   91.1974   11.8462 C.ar    1  UNL1        0.0400
     20 C          64.9648   91.9631   11.6840 C.ar    1  UNL1        0.1386
     21 C          65.9372   92.0486   12.8229 C.ar    1  UNL1        0.0400
     22 C          65.6300   91.3684   14.1240 C.ar    1  UNL1        0.0407
     23 O          65.2720   92.6434   10.3829 O.3     1  UNL1       -0.4792
     24 C          66.5012   93.4931   10.2527 C.3     1  UNL1        0.1661
     25 C          67.7372   92.9314    9.6148 C.3     1  UNL1        0.0472
     26 C          66.4945   94.9046   10.7604 C.3     1  UNL1        0.0472
@<TRIPOS>BOND
     1    14    15    1
     2    15    10    1
     3    10    11    2
     4    10    12   am
     5    12     8    1
     6     8     9    1
     7     8     6    1
     8     6     7    2
     9     7     1    1
    10     1     2   ar
    11     2     3   ar
    12     3     4   ar
    13     4    16    1
    14    16    17    1
    15    17    18   ar
    16    18    19   ar
    17    19    20   ar
    18    20    23    1
    19    23    24    1
    20    24    25    1
    21    24    26    1
    22    20    21   ar
    23    21    22   ar
    24     4     5   ar
    25     5     1   ar
    26    22    17   ar
    27    12    13    1
@<TRIPOS>MOLECULE
*****
 26 27 0 0 0
SMALL
GASTEIGER

@<TRIPOS>ATOM
      1 C          61.9947   86.2109   10.8311 C.ar    1  UNL1        0.0527
      2 C          61.0105   86.2780    9.7010 C.ar    1  UNL1        0.1091
      3 N          60.7419   87.7238    9.4055 N.ar    1  UNL1       -0.2035
      4 C          61.5601   88.5503   10.3528 C.ar    1  UNL1        0.2628
      5 S          62.3343   87.6153   11.2339 S.2     1  UNL1       -0.0283
      6 C          63.1965   85.0134   12.7987 C.2     1  UNL1       -0.0063
      7 C          62.5430   84.9592   11.4496 C.2     1  UNL1        0.0052
      8 C          63.7448   83.7617   13.4173 C.3     1  UNL1        0.0971
      9 C          64.2965   83.7937   14.8118 C.3     1  UNL1        0.0263
     10 C          62.7021   81.4338   12.9236 C.2     1  UNL1        0.4019
     11 O          61.6663   81.6734   13.9818 O.2     1  UNL1       -0.2264
     12 N          63.7413   82.4780   12.6413 N.am    1  UNL1       -0.2685
     13 H          64.4212   82.3208   11.9468 H       1  UNL1        0.1530
     14 C          62.9465   80.1671   10.6684 C.3     1  UNL1        0.2573
     15 O          62.6986   80.1502   12.1478 O.3     1  UNL1       -0.4306
     16 O          61.5974   90.0488   10.4092 O.3     1  UNL1       -0.4313
     17 C          62.7619   90.7466   11.0472 C.ar    1  UNL1        0.1479
     18 C          63.0308   90.5705   12.5124 C.ar    1  UNL1        0.0407
     19 C          64.1952   91.2683   13.1503 C.ar    1  UNL1        0.0400
     20 C          65.0909   92.1421   12.3231 C.ar    1  UNL1        0.1386
     21 C          64.8221   92.3181   10.8580 C.ar    1  UNL1        0.0400
     22 C          63.6576   91.6204   10.2200 C.ar    1  UNL1        0.0407
     23 O          66.2555   92.8399   12.9612 O.3     1  UNL1       -0.4792
     24 C          67.4142   92.0423   13.4818 C.3     1  UNL1        0.1661
     25 C          67.4747   91.6667   14.9328 C.3     1  UNL1        0.0472
     26 C          68.5125   91.6202   12.5515 C.3     1  UNL1        0.0472
@<TRIPOS>BOND
     1    14    15    1
     2    15    10    1
     3    10    11    2
     4    10    12   am
     5    12     8    1
     6     8     9    1
     7     8     6    1
     8     6     7    2
     9     7     1    1
    10     1     2   ar
    11     2     3   ar
    12     3     4   ar
    13     4    16    1
    14    16    17    1
    15    17    18   ar
    16    18    19   ar
    17    19    20   ar
    18    20    23    1
    19    23    24    1
    20    24    25    1
    21    24    26    1
    22    20    21   ar
    23    21    22   ar
    24     4     5   ar
    25     5     1   ar
    26    22    17   ar
    27    12    13    1
