@<TRIPOS>MOLECULE
*****
 41 45 0 0 0
SMALL
GASTEIGER

@<TRIPOS>ATOM
      1 C          63.9328   89.8527   13.9364 C.3     1  UNL1        0.1532
      2 N          63.0782   90.4402   14.8193 N.3     1  UNL1       -0.3221
      3 C          63.4542   89.0123   15.0830 C.3     1  UNL1        0.0541
      4 C          64.3911   88.2995   14.1535 C.3     1  UNL1        0.0353
      5 C          64.6685   86.8713   14.5571 C.3     1  UNL1        0.0767
      6 C          64.7589   85.5129   15.1867 C.3     1  UNL1        0.0216
      7 C          63.8942   85.5116   16.4123 C.3     1  UNL1        0.0216
      8 C          63.2694   86.8693   16.5402 C.3     1  UNL1        0.0767
      9 C          62.8934   88.2972   16.2764 C.3     1  UNL1        0.0353
     10 N          63.7479   87.7097   15.3936 N.am    1  UNL1       -0.2814
     11 C          63.3719   89.1376   15.1298 C.2     1  UNL1        0.2437
     12 O          62.4351   89.8504   16.0593 O.2     1  UNL1       -0.2731
     13 H          63.5473   90.7647   13.9737 H       1  UNL1        0.1188
     14 H          63.3635   91.0185   15.6096 H       1  UNL1        0.1188
     15 N          63.4729   89.4845   12.5569 N.am    1  UNL1       -0.2978
     16 C          62.0073   89.4447   12.2406 C.2     1  UNL1        0.2256
     17 O          60.7622   89.7065   13.0352 O.2     1  UNL1       -0.2748
     18 H          64.1331   89.2689   11.8592 H       1  UNL1        0.1498
     19 C          61.5473   89.0765   10.8611 C.3     1  UNL1        0.0876
     20 C          60.9473   89.2098    9.4929 C.3     1  UNL1        0.0135
     21 C          60.9842   90.3930   10.4142 C.3     1  UNL1        0.0135
     22 C          61.9508   87.6321   10.8290 C.ar    1  UNL1       -0.0144
     23 C          62.3201   86.9853    9.5270 C.ar    1  UNL1       -0.0007
     24 C          62.7236   85.5409    9.4949 C.ar    1  UNL1        0.0369
     25 C          62.7577   84.7434   10.7649 C.ar    1  UNL1        0.1468
     26 C          62.3884   85.3902   12.0669 C.ar    1  UNL1        0.0369
     27 C          61.9850   86.8346   12.0989 C.ar    1  UNL1       -0.0007
     28 O          63.1612   83.2990   10.7328 O.3     1  UNL1       -0.4045
     29 C          63.6808   82.6377   11.9748 C.3     1  UNL1        0.5753
     30 F          64.2005   81.9765   13.2169 F       1  UNL1       -0.1328
     31 F          64.9922   83.3454   11.8029 F       1  UNL1       -0.1328
     32 F          62.3694   81.9301   12.1467 F       1  UNL1       -0.1328
     33 C          64.9534   90.9359   14.1225 C.3     1  UNL1        0.0562
     34 C          65.4950   91.6689   12.9312 C.ar    1  UNL1       -0.0094
     35 C          64.5898   92.0080   11.7841 C.ar    1  UNL1       -0.0025
     36 C          65.1313   92.7410   10.5926 C.ar    1  UNL1        0.0111
     37 C          66.5781   93.1349   10.5483 C.ar    1  UNL1        0.0585
     38 CL         67.1196   93.8679    9.3568 Cl      1  UNL1       -0.0822
     39 C          67.4832   92.7958   11.6953 C.ar    1  UNL1        0.0225
     40 C          66.9417   92.0628   12.8867 C.ar    1  UNL1        0.0546
     41 CL         67.8469   91.7237   14.0338 Cl      1  UNL1       -0.0825
@<TRIPOS>BOND
     1     2     3    1
     2     3     4    1
     3     5     4    1
     4     5     6    1
     5     6     7    1
     6     8     7    1
     7     8     9    1
     8     8    10    1
     9    10    11   am
    10    11    12    2
    11    11     1    1
    12     1    33    1
    13    33    34    1
    14    34    35   ar
    15    35    36   ar
    16    36    37   ar
    17    37    38    1
    18    37    39   ar
    19    39    40   ar
    20    40    41    1
    21     1    15    1
    22    15    16   am
    23    16    17    2
    24    16    19    1
    25    19    22    1
    26    22    23   ar
    27    23    24   ar
    28    24    25   ar
    29    25    28    1
    30    28    29    1
    31    29    30    1
    32    29    31    1
    33    29    32    1
    34    25    26   ar
    35    26    27   ar
    36    19    20    1
    37    20    21    1
    38     9     3    1
    39    40    34   ar
    40    21    19    1
    41    10     5    1
    42    27    22   ar
    43     2    13    1
    44     2    14    1
    45    15    18    1
@<TRIPOS>MOLECULE
*****
 41 45 0 0 0
SMALL
GASTEIGER

@<TRIPOS>ATOM
      1 C          64.0912   89.9813   14.6826 C.3     1  UNL1        0.1532
      2 N          63.2040   90.6070   15.5050 N.3     1  UNL1       -0.3221
      3 C          64.5897   91.1772   15.4383 C.3     1  UNL1        0.0541
      4 C          65.6209   90.5410   14.5541 C.3     1  UNL1        0.0353
      5 C          66.9621   91.2327   14.5996 C.3     1  UNL1        0.0767
      6 C          68.1593   92.1038   14.8398 C.3     1  UNL1        0.0216
      7 C          67.7686   93.1678   15.8224 C.3     1  UNL1        0.0216
      8 C          66.3300   92.9542   16.1894 C.3     1  UNL1        0.0767
      9 C          64.9442   92.3838   16.2559 C.3     1  UNL1        0.0353
     10 N          65.8315   91.7582   15.4336 N.am    1  UNL1       -0.2814
     11 C          64.4458   91.1878   15.5002 C.2     1  UNL1        0.2437
     12 O          63.4146   91.8241   16.3844 O.2     1  UNL1       -0.2731
     13 H          63.1403   89.7956   14.8902 H       1  UNL1        0.1188
     14 H          62.5310   91.3131   15.2068 H       1  UNL1        0.1188
     15 N          63.3671   88.8313   15.3176 N.am    1  UNL1       -0.2978
     16 C          64.0291   87.4888   15.4129 C.2     1  UNL1        0.2256
     17 O          65.3654   86.9536   14.9913 O.2     1  UNL1       -0.2748
     18 H          62.4573   88.9578   15.6718 H       1  UNL1        0.1498
     19 C          63.3050   86.3388   16.0480 C.3     1  UNL1        0.0876
     20 C          62.4703   85.5655   17.0252 C.3     1  UNL1        0.0135
     21 C          62.7348   87.0241   17.2543 C.3     1  UNL1        0.0135
     22 C          63.6237   85.2541   15.0621 C.ar    1  UNL1       -0.0144
     23 C          64.1785   83.9451   15.5405 C.ar    1  UNL1       -0.0007
     24 C          64.4972   82.8604   14.5546 C.ar    1  UNL1        0.0369
     25 C          64.2611   83.0848   13.0904 C.ar    1  UNL1        0.1468
     26 C          63.7064   84.3937   12.6120 C.ar    1  UNL1        0.0369
     27 C          63.3877   85.4784   13.5979 C.ar    1  UNL1       -0.0007
     28 O          64.5799   82.0001   12.1045 O.3     1  UNL1       -0.4045
     29 C          63.6303   81.7046   10.9816 C.3     1  UNL1        0.5753
     30 F          62.6806   81.4090    9.8587 F       1  UNL1       -0.1328
     31 F          62.7714   80.9071   11.9179 F       1  UNL1       -0.1328
     32 F          64.4891   82.5019   10.0454 F       1  UNL1       -0.1328
     33 C          64.4608   89.9247   13.2300 C.3     1  UNL1        0.0562
     34 C          63.3903   89.7852   12.1886 C.ar    1  UNL1       -0.0094
     35 C          62.4435   88.6227   12.2374 C.ar    1  UNL1       -0.0025
     36 C          61.3729   88.4832   11.1960 C.ar    1  UNL1        0.0111
     37 C          61.2493   89.5061   10.1057 C.ar    1  UNL1        0.0585
     38 CL         60.1787   89.3665    9.0643 Cl      1  UNL1       -0.0822
     39 C          62.1961   90.6684   10.0570 C.ar    1  UNL1        0.0225
     40 C          63.2666   90.8080   11.0984 C.ar    1  UNL1        0.0546
     41 CL         64.2134   91.9704   11.0496 Cl      1  UNL1       -0.0825
@<TRIPOS>BOND
     1     2     3    1
     2     3     4    1
     3     5     4    1
     4     5     6    1
     5     6     7    1
     6     8     7    1
     7     8     9    1
     8     8    10    1
     9    10    11   am
    10    11    12    2
    11    11     1    1
    12     1    33    1
    13    33    34    1
    14    34    35   ar
    15    35    36   ar
    16    36    37   ar
    17    37    38    1
    18    37    39   ar
    19    39    40   ar
    20    40    41    1
    21     1    15    1
    22    15    16   am
    23    16    17    2
    24    16    19    1
    25    19    22    1
    26    22    23   ar
    27    23    24   ar
    28    24    25   ar
    29    25    28    1
    30    28    29    1
    31    29    30    1
    32    29    31    1
    33    29    32    1
    34    25    26   ar
    35    26    27   ar
    36    19    20    1
    37    20    21    1
    38     9     3    1
    39    40    34   ar
    40    21    19    1
    41    10     5    1
    42    27    22   ar
    43     2    13    1
    44     2    14    1
    45    15    18    1
@<TRIPOS>MOLECULE
*****
 41 45 0 0 0
SMALL
GASTEIGER

@<TRIPOS>ATOM
      1 C          64.0424   90.4647   15.0332 C.3     1  UNL1        0.1532
      2 N          63.4741   91.2341   16.0027 N.3     1  UNL1       -0.3221
      3 C          64.8883   91.5556   15.6199 C.3     1  UNL1        0.0541
      4 C          65.5797   90.7509   14.5596 C.3     1  UNL1        0.0353
      5 C          66.9961   91.1996   14.2913 C.3     1  UNL1        0.0767
      6 C          68.3467   91.8499   14.2373 C.3     1  UNL1        0.0216
      7 C          68.3647   92.9648   15.2407 C.3     1  UNL1        0.0216
      8 C          67.0253   93.0035   15.9148 C.3     1  UNL1        0.0767
      9 C          65.6110   92.6819   16.2975 C.3     1  UNL1        0.0353
     10 N          66.1794   91.9126   15.3280 N.am    1  UNL1       -0.2814
     11 C          64.7651   91.5910   15.7107 C.2     1  UNL1        0.2437
     12 O          64.0737   92.3957   16.7710 O.2     1  UNL1       -0.2731
     13 H          63.1419   90.4465   15.4462 H       1  UNL1        0.1188
     14 H          62.8819   92.0464   15.8296 H       1  UNL1        0.1188
     15 N          64.0337   90.3720   13.5361 N.am    1  UNL1       -0.2978
     16 C          62.7579   90.0607   12.8113 C.2     1  UNL1        0.2256
     17 O          61.3489   89.7921   13.2502 O.2     1  UNL1       -0.2748
     18 H          64.8654   90.5156   13.0292 H       1  UNL1        0.1498
     19 C          62.7492   89.9680   11.3142 C.3     1  UNL1        0.0876
     20 C          62.7935   90.3901    9.8756 C.3     1  UNL1        0.0135
     21 C          62.8992   91.4184   10.9625 C.3     1  UNL1        0.0135
     22 C          62.5961   88.4853   11.1460 C.ar    1  UNL1       -0.0144
     23 C          62.0387   87.9289    9.8693 C.ar    1  UNL1       -0.0007
     24 C          61.8857   86.4462    9.7011 C.ar    1  UNL1        0.0369
     25 C          62.2899   85.5200   10.8097 C.ar    1  UNL1        0.1468
     26 C          62.8473   86.0765   12.0863 C.ar    1  UNL1        0.0369
     27 C          63.0003   87.5591   12.2544 C.ar    1  UNL1       -0.0007
     28 O          62.1369   84.0373   10.6415 O.3     1  UNL1       -0.4045
     29 C          63.2800   83.1233   10.9698 C.3     1  UNL1        0.5753
     30 F          64.4231   82.2093   11.2983 F       1  UNL1       -0.1328
     31 F          62.4459   82.4593   12.0250 F       1  UNL1       -0.1328
     32 F          64.1141   83.7873    9.9147 F       1  UNL1       -0.1328
     33 C          63.3283   89.4311   15.8527 C.3     1  UNL1        0.0562
     34 C          63.6948   87.9828   15.7182 C.ar    1  UNL1       -0.0094
     35 C          64.7379   87.5622   14.7256 C.ar    1  UNL1       -0.0025
     36 C          65.1044   86.1139   14.5910 C.ar    1  UNL1        0.0111
     37 C          64.4278   85.0862   15.4490 C.ar    1  UNL1        0.0585
     38 CL         64.7944   83.6379   15.3144 Cl      1  UNL1       -0.0822
     39 C          63.3848   85.5067   16.4415 C.ar    1  UNL1        0.0225
     40 C          63.0183   86.9550   16.5761 C.ar    1  UNL1        0.0546
     41 CL         61.9752   87.3756   17.5687 Cl      1  UNL1       -0.0825
@<TRIPOS>BOND
     1     2     3    1
     2     3     4    1
     3     5     4    1
     4     5     6    1
     5     6     7    1
     6     8     7    1
     7     8     9    1
     8     8    10    1
     9    10    11   am
    10    11    12    2
    11    11     1    1
    12     1    33    1
    13    33    34    1
    14    34    35   ar
    15    35    36   ar
    16    36    37   ar
    17    37    38    1
    18    37    39   ar
    19    39    40   ar
    20    40    41    1
    21     1    15    1
    22    15    16   am
    23    16    17    2
    24    16    19    1
    25    19    22    1
    26    22    23   ar
    27    23    24   ar
    28    24    25   ar
    29    25    28    1
    30    28    29    1
    31    29    30    1
    32    29    31    1
    33    29    32    1
    34    25    26   ar
    35    26    27   ar
    36    19    20    1
    37    20    21    1
    38     9     3    1
    39    40    34   ar
    40    21    19    1
    41    10     5    1
    42    27    22   ar
    43     2    13    1
    44     2    14    1
    45    15    18    1
@<TRIPOS>MOLECULE
*****
 41 45 0 0 0
SMALL
GASTEIGER

@<TRIPOS>ATOM
      1 C          63.3607   89.5249   14.1821 C.3     1  UNL1        0.1532
      2 N          62.7010   89.7007   15.3606 N.3     1  UNL1       -0.3221
      3 C          63.9145   90.5506   15.1261 C.3     1  UNL1        0.0541
      4 C          64.6920   90.4124   13.8508 C.3     1  UNL1        0.0353
      5 C          65.8830   91.3366   13.7689 C.3     1  UNL1        0.0767
      6 C          66.9761   92.3460   13.9591 C.3     1  UNL1        0.0216
      7 C          66.7789   92.9963   15.2963 C.3     1  UNL1        0.0216
      8 C          65.5639   92.3889   15.9326 C.3     1  UNL1        0.0767
      9 C          64.3504   91.5388   16.1670 C.3     1  UNL1        0.0353
     10 N          65.0102   91.3631   14.9885 N.am    1  UNL1       -0.2814
     11 C          63.7967   90.5131   15.2229 C.2     1  UNL1        0.2437
     12 O          63.0192   90.6513   16.4982 O.2     1  UNL1       -0.2731
     13 H          62.5524   89.0911   14.5564 H       1  UNL1        0.1188
     14 H          61.8856   90.3000   15.4882 H       1  UNL1        0.1188
     15 N          62.0470   89.7046   13.4808 N.am    1  UNL1       -0.2978
     16 C          61.9840   89.6588   11.9829 C.2     1  UNL1        0.2256
     17 O          63.0053   89.4585   10.9026 O.2     1  UNL1       -0.2748
     18 H          61.2261   89.8527   14.0037 H       1  UNL1        0.1498
     19 C          60.6703   89.8386   11.2815 C.3     1  UNL1        0.0876
     20 C          59.3468   90.4309   10.8978 C.3     1  UNL1        0.0135
     21 C          60.1857   91.0894   11.9527 C.3     1  UNL1        0.0135
     22 C          60.6988   88.6501   10.3667 C.ar    1  UNL1       -0.0144
     23 C          60.3955   88.8194    8.9075 C.ar    1  UNL1       -0.0007
     24 C          60.4239   87.6309    7.9927 C.ar    1  UNL1        0.0369
     25 C          60.7557   86.2732    8.5372 C.ar    1  UNL1        0.1468
     26 C          61.0591   86.1039    9.9965 C.ar    1  UNL1        0.0369
     27 C          61.0306   87.2924   10.9112 C.ar    1  UNL1       -0.0007
     28 O          60.7842   85.0847    7.6224 O.3     1  UNL1       -0.4045
     29 C          61.9980   84.8123    6.7844 C.3     1  UNL1        0.5753
     30 F          63.2119   84.5399    5.9463 F       1  UNL1       -0.1328
     31 F          61.1469   84.0797    5.7899 F       1  UNL1       -0.1328
     32 F          62.8491   85.5449    7.7789 F       1  UNL1       -0.1328
     33 C          64.2385   88.3569   13.8426 C.3     1  UNL1        0.0562
     34 C          63.7211   86.9582   14.0033 C.ar    1  UNL1       -0.0094
     35 C          63.4218   86.1255   12.7919 C.ar    1  UNL1       -0.0025
     36 C          62.9044   84.7267   12.9525 C.ar    1  UNL1        0.0111
     37 C          62.6864   84.1606   14.3244 C.ar    1  UNL1        0.0585
     38 CL         62.1691   82.7618   14.4850 Cl      1  UNL1       -0.0822
     39 C          62.9858   84.9932   15.5357 C.ar    1  UNL1        0.0225
     40 C          63.5031   86.3920   15.3751 C.ar    1  UNL1        0.0546
     41 CL         63.8025   87.2246   16.5863 Cl      1  UNL1       -0.0825
@<TRIPOS>BOND
     1     2     3    1
     2     3     4    1
     3     5     4    1
     4     5     6    1
     5     6     7    1
     6     8     7    1
     7     8     9    1
     8     8    10    1
     9    10    11   am
    10    11    12    2
    11    11     1    1
    12     1    33    1
    13    33    34    1
    14    34    35   ar
    15    35    36   ar
    16    36    37   ar
    17    37    38    1
    18    37    39   ar
    19    39    40   ar
    20    40    41    1
    21     1    15    1
    22    15    16   am
    23    16    17    2
    24    16    19    1
    25    19    22    1
    26    22    23   ar
    27    23    24   ar
    28    24    25   ar
    29    25    28    1
    30    28    29    1
    31    29    30    1
    32    29    31    1
    33    29    32    1
    34    25    26   ar
    35    26    27   ar
    36    19    20    1
    37    20    21    1
    38     9     3    1
    39    40    34   ar
    40    21    19    1
    41    10     5    1
    42    27    22   ar
    43     2    13    1
    44     2    14    1
    45    15    18    1
@<TRIPOS>MOLECULE
*****
 41 45 0 0 0
SMALL
GASTEIGER

@<TRIPOS>ATOM
      1 C          64.1919   89.9683   14.3966 C.3     1  UNL1        0.1532
      2 N          63.4841   90.8124   15.1975 N.3     1  UNL1       -0.3221
      3 C          63.5301   89.3688   15.6019 C.3     1  UNL1        0.0541
      4 C          64.2904   88.3803   14.7683 C.3     1  UNL1        0.0353
      5 C          64.2394   86.9716   15.3091 C.3     1  UNL1        0.0767
      6 C          64.0200   85.6937   16.0632 C.3     1  UNL1        0.0216
      7 C          63.1686   86.0016   17.2591 C.3     1  UNL1        0.0216
      8 C          62.8618   87.4698   17.2442 C.3     1  UNL1        0.0767
      9 C          62.8158   88.9135   16.8398 C.3     1  UNL1        0.0353
     10 N          63.5235   88.0693   16.0389 N.am    1  UNL1       -0.2814
     11 C          63.4775   89.5130   15.6346 C.2     1  UNL1        0.2437
     12 O          62.7172   90.5015   16.4681 O.2     1  UNL1       -0.2731
     13 H          64.0195   90.9424   14.3391 H       1  UNL1        0.1188
     14 H          63.8859   91.3862   15.9390 H       1  UNL1        0.1188
     15 N          64.8835   91.2992   14.3764 N.am    1  UNL1       -0.2978
     16 C          66.3480   91.3881   14.6881 C.2     1  UNL1        0.2256
     17 O          67.3992   90.3815   15.0508 O.2     1  UNL1       -0.2748
     18 H          64.3762   92.1143   14.1585 H       1  UNL1        0.1498
     19 C          67.0397   92.7190   14.6679 C.3     1  UNL1        0.0876
     20 C          67.7681   93.9365   15.1546 C.3     1  UNL1        0.0135
     21 C          67.3856   92.8549   16.1210 C.3     1  UNL1        0.0135
     22 C          66.9340   93.0452   13.2075 C.ar    1  UNL1       -0.0144
     23 C          67.4994   92.1036   12.1859 C.ar    1  UNL1       -0.0007
     24 C          67.3936   92.4299   10.7255 C.ar    1  UNL1        0.0369
     25 C          66.7225   93.6977   10.2870 C.ar    1  UNL1        0.1468
     26 C          66.1572   94.6392   11.3087 C.ar    1  UNL1        0.0369
     27 C          66.2629   94.3130   12.7690 C.ar    1  UNL1       -0.0007
     28 O          66.6168   94.0240    8.8267 O.3     1  UNL1       -0.4045
     29 C          67.2633   95.2652    8.2869 C.3     1  UNL1        0.5753
     30 F          67.9098   96.5065    7.7471 F       1  UNL1       -0.1328
     31 F          68.4137   95.0765    9.2309 F       1  UNL1       -0.1328
     32 F          66.1130   95.4539    7.3430 F       1  UNL1       -0.1328
     33 C          64.2145   89.0927   13.1790 C.3     1  UNL1        0.0562
     34 C          63.1574   89.2451   12.1258 C.ar    1  UNL1       -0.0094
     35 C          62.7526   90.6131   11.6620 C.ar    1  UNL1       -0.0025
     36 C          61.6955   90.7656   10.6087 C.ar    1  UNL1        0.0111
     37 C          61.0432   89.5502   10.0193 C.ar    1  UNL1        0.0585
     38 CL         59.9861   89.7027    8.9661 Cl      1  UNL1       -0.0822
     39 C          61.4480   88.1823   10.4831 C.ar    1  UNL1        0.0225
     40 C          62.5051   88.0298   11.5363 C.ar    1  UNL1        0.0546
     41 CL         62.9099   86.6620   12.0001 Cl      1  UNL1       -0.0825
@<TRIPOS>BOND
     1     2     3    1
     2     3     4    1
     3     5     4    1
     4     5     6    1
     5     6     7    1
     6     8     7    1
     7     8     9    1
     8     8    10    1
     9    10    11   am
    10    11    12    2
    11    11     1    1
    12     1    33    1
    13    33    34    1
    14    34    35   ar
    15    35    36   ar
    16    36    37   ar
    17    37    38    1
    18    37    39   ar
    19    39    40   ar
    20    40    41    1
    21     1    15    1
    22    15    16   am
    23    16    17    2
    24    16    19    1
    25    19    22    1
    26    22    23   ar
    27    23    24   ar
    28    24    25   ar
    29    25    28    1
    30    28    29    1
    31    29    30    1
    32    29    31    1
    33    29    32    1
    34    25    26   ar
    35    26    27   ar
    36    19    20    1
    37    20    21    1
    38     9     3    1
    39    40    34   ar
    40    21    19    1
    41    10     5    1
    42    27    22   ar
    43     2    13    1
    44     2    14    1
    45    15    18    1
@<TRIPOS>MOLECULE
*****
 41 45 0 0 0
SMALL
GASTEIGER

@<TRIPOS>ATOM
      1 C          63.4944   84.1033   12.8548 C.3     1  UNL1        0.1532
      2 N          64.7081   83.5626   12.5556 N.3     1  UNL1       -0.3221
      3 C          63.6299   82.6158   12.9923 C.3     1  UNL1        0.0541
      4 C          62.2673   83.1389   13.3381 C.3     1  UNL1        0.0353
      5 C          61.2974   82.0607   13.7580 C.3     1  UNL1        0.0767
      6 C          60.5656   80.8046   14.1278 C.3     1  UNL1        0.0216
      7 C          61.5165   79.6539   13.9804 C.3     1  UNL1        0.0216
      8 C          62.8359   80.1988   13.5196 C.3     1  UNL1        0.0767
      9 C          63.9142   81.1457   13.0830 C.3     1  UNL1        0.0353
     10 N          62.7004   81.6863   13.3822 N.am    1  UNL1       -0.2814
     11 C          63.7787   82.6333   12.9455 C.2     1  UNL1        0.2437
     12 O          65.1413   82.1101   12.5996 O.2     1  UNL1       -0.2731
     13 H          64.3430   84.5150   12.5511 H       1  UNL1        0.1188
     14 H          65.0197   83.3134   11.6169 H       1  UNL1        0.1188
     15 N          62.9338   84.8333   14.0392 N.am    1  UNL1       -0.2978
     16 C          63.8547   85.5369   14.9913 C.2     1  UNL1        0.2256
     17 O          65.3428   85.7116   15.0645 O.2     1  UNL1       -0.2748
     18 H          61.9613   84.8506   14.1916 H       1  UNL1        0.1498
     19 C          63.2942   86.2669   16.1757 C.3     1  UNL1        0.0876
     20 C          62.6268   86.5061   17.4975 C.3     1  UNL1        0.0135
     21 C          62.7919   85.1068   16.9830 C.3     1  UNL1        0.0135
     22 C          63.6018   87.6806   15.7797 C.ar    1  UNL1       -0.0144
     23 C          64.2781   87.9626   14.4708 C.ar    1  UNL1       -0.0007
     24 C          64.5858   89.3764   14.0748 C.ar    1  UNL1        0.0369
     25 C          64.2171   90.5081   14.9878 C.ar    1  UNL1        0.1468
     26 C          63.5408   90.2260   16.2966 C.ar    1  UNL1        0.0369
     27 C          63.2332   88.8123   16.6925 C.ar    1  UNL1       -0.0007
     28 O          64.5247   91.9218   14.5918 O.3     1  UNL1       -0.4045
     29 C          65.8059   92.2391   13.8792 C.3     1  UNL1        0.5753
     30 F          67.0873   92.5563   13.1667 F       1  UNL1       -0.1328
     31 F          66.5847   91.7948   15.0818 F       1  UNL1       -0.1328
     32 F          65.0272   92.6834   12.6767 F       1  UNL1       -0.1328
     33 C          63.7708   84.8432   11.5797 C.3     1  UNL1        0.0562
     34 C          62.6555   85.5450   10.8629 C.ar    1  UNL1       -0.0094
     35 C          61.7312   86.4521   11.6198 C.ar    1  UNL1       -0.0025
     36 C          60.6159   87.1539   10.9031 C.ar    1  UNL1        0.0111
     37 C          60.4249   86.9486    9.4295 C.ar    1  UNL1        0.0585
     38 CL         59.3096   87.6503    8.7128 Cl      1  UNL1       -0.0822
     39 C          61.3492   86.0415    8.6727 C.ar    1  UNL1        0.0225
     40 C          62.4645   85.3397    9.3893 C.ar    1  UNL1        0.0546
     41 CL         63.3888   84.4326    8.6325 Cl      1  UNL1       -0.0825
@<TRIPOS>BOND
     1     2     3    1
     2     3     4    1
     3     5     4    1
     4     5     6    1
     5     6     7    1
     6     8     7    1
     7     8     9    1
     8     8    10    1
     9    10    11   am
    10    11    12    2
    11    11     1    1
    12     1    33    1
    13    33    34    1
    14    34    35   ar
    15    35    36   ar
    16    36    37   ar
    17    37    38    1
    18    37    39   ar
    19    39    40   ar
    20    40    41    1
    21     1    15    1
    22    15    16   am
    23    16    17    2
    24    16    19    1
    25    19    22    1
    26    22    23   ar
    27    23    24   ar
    28    24    25   ar
    29    25    28    1
    30    28    29    1
    31    29    30    1
    32    29    31    1
    33    29    32    1
    34    25    26   ar
    35    26    27   ar
    36    19    20    1
    37    20    21    1
    38     9     3    1
    39    40    34   ar
    40    21    19    1
    41    10     5    1
    42    27    22   ar
    43     2    13    1
    44     2    14    1
    45    15    18    1
@<TRIPOS>MOLECULE
*****
 41 45 0 0 0
SMALL
GASTEIGER

@<TRIPOS>ATOM
      1 C          63.4509   89.9844   14.1386 C.3     1  UNL1        0.1532
      2 N          63.1632   90.8532   15.1472 N.3     1  UNL1       -0.3221
      3 C          63.3090   89.4065   15.5155 C.3     1  UNL1        0.0541
      4 C          63.6254   88.3914   14.4575 C.3     1  UNL1        0.0353
      5 C          63.7391   86.9831   14.9895 C.3     1  UNL1        0.0767
      6 C          63.7908   85.7112   15.7830 C.3     1  UNL1        0.0216
      7 C          63.5095   86.0481   17.2173 C.3     1  UNL1        0.0216
      8 C          63.2840   87.5281   17.3103 C.3     1  UNL1        0.0767
      9 C          63.1382   88.9749   16.9419 C.3     1  UNL1        0.0353
     10 N          63.4259   88.1060   15.9334 N.am    1  UNL1       -0.2814
     11 C          63.2801   89.5527   15.5650 C.2     1  UNL1        0.2437
     12 O          62.9637   90.5678   16.6230 O.2     1  UNL1       -0.2731
     13 H          63.3105   90.9652   14.1442 H       1  UNL1        0.1188
     14 H          63.8541   91.4048   15.6560 H       1  UNL1        0.1188
     15 N          62.2457   90.2340   13.2812 N.am    1  UNL1       -0.2978
     16 C          62.1268   89.5682   11.9424 C.2     1  UNL1        0.2256
     17 O          62.9959   88.6217   11.1684 O.2     1  UNL1       -0.2748
     18 H          61.5327   90.8349   13.5971 H       1  UNL1        0.1498
     19 C          60.9216   89.8178   11.0849 C.3     1  UNL1        0.0876
     20 C          59.7123   90.4999   10.5174 C.3     1  UNL1        0.0135
     21 C          60.4909   91.1503   11.6224 C.3     1  UNL1        0.0135
     22 C          60.9339   88.5719   10.2496 C.ar    1  UNL1       -0.0144
     23 C          61.2882   87.2544   10.8730 C.ar    1  UNL1       -0.0007
     24 C          61.3004   86.0085   10.0377 C.ar    1  UNL1        0.0369
     25 C          60.9584   86.0803    8.5789 C.ar    1  UNL1        0.1468
     26 C          60.6041   87.3978    7.9556 C.ar    1  UNL1        0.0369
     27 C          60.5919   88.6436    8.7909 C.ar    1  UNL1       -0.0007
     28 O          60.9706   84.8344    7.7436 O.3     1  UNL1       -0.4045
     29 C          62.0180   84.6511    6.6856 C.3     1  UNL1        0.5753
     30 F          63.0654   84.4678    5.6276 F       1  UNL1       -0.1328
     31 F          60.9822   84.0889    5.7577 F       1  UNL1       -0.1328
     32 F          63.0538   85.2133    7.6135 F       1  UNL1       -0.1328
     33 C          64.8268   90.1663   13.5697 C.3     1  UNL1        0.0562
     34 C          65.2237   91.4844   12.9738 C.ar    1  UNL1       -0.0094
     35 C          64.8215   91.8238   11.5690 C.ar    1  UNL1       -0.0025
     36 C          65.2184   93.1418   10.9729 C.ar    1  UNL1        0.0111
     37 C          66.0175   94.1205   11.7816 C.ar    1  UNL1        0.0585
     38 CL         66.4143   95.4386   11.1856 Cl      1  UNL1       -0.0822
     39 C          66.4196   93.7811   13.1863 C.ar    1  UNL1        0.0225
     40 C          66.0227   92.4631   13.7824 C.ar    1  UNL1        0.0546
     41 CL         66.4248   92.1237   15.1870 Cl      1  UNL1       -0.0825
@<TRIPOS>BOND
     1     2     3    1
     2     3     4    1
     3     5     4    1
     4     5     6    1
     5     6     7    1
     6     8     7    1
     7     8     9    1
     8     8    10    1
     9    10    11   am
    10    11    12    2
    11    11     1    1
    12     1    33    1
    13    33    34    1
    14    34    35   ar
    15    35    36   ar
    16    36    37   ar
    17    37    38    1
    18    37    39   ar
    19    39    40   ar
    20    40    41    1
    21     1    15    1
    22    15    16   am
    23    16    17    2
    24    16    19    1
    25    19    22    1
    26    22    23   ar
    27    23    24   ar
    28    24    25   ar
    29    25    28    1
    30    28    29    1
    31    29    30    1
    32    29    31    1
    33    29    32    1
    34    25    26   ar
    35    26    27   ar
    36    19    20    1
    37    20    21    1
    38     9     3    1
    39    40    34   ar
    40    21    19    1
    41    10     5    1
    42    27    22   ar
    43     2    13    1
    44     2    14    1
    45    15    18    1
@<TRIPOS>MOLECULE
*****
 41 45 0 0 0
SMALL
GASTEIGER

@<TRIPOS>ATOM
      1 C          64.1566   90.9107   14.9066 C.3     1  UNL1        0.1532
      2 N          63.6336   91.4935   16.0209 N.3     1  UNL1       -0.3221
      3 C          65.0855   91.7435   15.7393 C.3     1  UNL1        0.0541
      4 C          65.7307   91.1343   14.5299 C.3     1  UNL1        0.0353
      5 C          67.1933   91.4811   14.3890 C.3     1  UNL1        0.0767
      6 C          68.6030   91.9809   14.5025 C.3     1  UNL1        0.0216
      7 C          68.6963   92.8287   15.7363 C.3     1  UNL1        0.0216
      8 C          67.3443   92.8529   16.3855 C.3     1  UNL1        0.0767
      9 C          65.8923   92.6028   16.6671 C.3     1  UNL1        0.0353
     10 N          66.4153   92.0200   15.5528 N.am    1  UNL1       -0.2814
     11 C          64.9634   91.7699   15.8344 C.2     1  UNL1        0.2437
     12 O          64.3182   92.3791   17.0437 O.2     1  UNL1       -0.2731
     13 H          63.2447   90.8933   15.2937 H       1  UNL1        0.1188
     14 H          63.1319   92.3815   16.0333 H       1  UNL1        0.1188
     15 N          64.2636   91.1030   13.4228 N.am    1  UNL1       -0.2978
     16 C          63.1117   90.7378   12.5342 C.2     1  UNL1        0.2256
     17 O          61.7442   90.1727   12.7802 O.2     1  UNL1       -0.2748
     18 H          65.0899   91.4689   13.0322 H       1  UNL1        0.1498
     19 C          63.2187   90.9301   11.0504 C.3     1  UNL1        0.0876
     20 C          63.5844   91.5433    9.7313 C.3     1  UNL1        0.0135
     21 C          64.0011   92.2091   11.0092 C.3     1  UNL1        0.0135
     22 C          62.4732   89.7178   10.5764 C.ar    1  UNL1       -0.0144
     23 C          61.3710   89.8614    9.5691 C.ar    1  UNL1       -0.0007
     24 C          60.6256   88.6490    9.0951 C.ar    1  UNL1        0.0369
     25 C          60.9825   87.2931    9.6283 C.ar    1  UNL1        0.1468
     26 C          62.0847   87.1496   10.6355 C.ar    1  UNL1        0.0369
     27 C          62.8300   88.3619   11.1095 C.ar    1  UNL1       -0.0007
     28 O          60.2371   86.0808    9.1543 O.3     1  UNL1       -0.4045
     29 C          60.5014   85.5254    7.7862 C.3     1  UNL1        0.5753
     30 F          60.7656   84.9699    6.4181 F       1  UNL1       -0.1328
     31 F          59.1057   85.8852    7.3706 F       1  UNL1       -0.1328
     32 F          61.8970   85.1656    8.2018 F       1  UNL1       -0.1328
     33 C          63.2429   89.8591   15.4626 C.3     1  UNL1        0.0562
     34 C          63.6022   88.4086   15.3332 C.ar    1  UNL1       -0.0094
     35 C          64.1594   87.8863   14.0421 C.ar    1  UNL1       -0.0025
     36 C          64.5188   86.4357   13.9126 C.ar    1  UNL1        0.0111
     37 C          64.3210   85.5074   15.0742 C.ar    1  UNL1        0.0585
     38 CL         64.6804   84.0569   14.9447 Cl      1  UNL1       -0.0822
     39 C          63.7639   86.0297   16.3652 C.ar    1  UNL1        0.0225
     40 C          63.4045   87.4803   16.4947 C.ar    1  UNL1        0.0546
     41 CL         62.8473   88.0026   17.7857 Cl      1  UNL1       -0.0825
@<TRIPOS>BOND
     1     2     3    1
     2     3     4    1
     3     5     4    1
     4     5     6    1
     5     6     7    1
     6     8     7    1
     7     8     9    1
     8     8    10    1
     9    10    11   am
    10    11    12    2
    11    11     1    1
    12     1    33    1
    13    33    34    1
    14    34    35   ar
    15    35    36   ar
    16    36    37   ar
    17    37    38    1
    18    37    39   ar
    19    39    40   ar
    20    40    41    1
    21     1    15    1
    22    15    16   am
    23    16    17    2
    24    16    19    1
    25    19    22    1
    26    22    23   ar
    27    23    24   ar
    28    24    25   ar
    29    25    28    1
    30    28    29    1
    31    29    30    1
    32    29    31    1
    33    29    32    1
    34    25    26   ar
    35    26    27   ar
    36    19    20    1
    37    20    21    1
    38     9     3    1
    39    40    34   ar
    40    21    19    1
    41    10     5    1
    42    27    22   ar
    43     2    13    1
    44     2    14    1
    45    15    18    1
@<TRIPOS>MOLECULE
*****
 41 45 0 0 0
SMALL
GASTEIGER

@<TRIPOS>ATOM
      1 C          62.0040   86.6597   11.4020 C.3     1  UNL1        0.1532
      2 N          60.7795   87.2538   11.4529 N.3     1  UNL1       -0.3221
      3 C          61.1570   86.5811   10.1665 C.3     1  UNL1        0.0541
      4 C          62.4899   85.9055   10.0364 C.3     1  UNL1        0.0353
      5 C          62.7168   85.2774    8.6824 C.3     1  UNL1        0.0767
      6 C          62.6675   84.7586    7.2759 C.3     1  UNL1        0.0216
      7 C          61.3463   85.1502    6.6834 C.3     1  UNL1        0.0216
      8 C          60.5790   85.9111    7.7238 C.3     1  UNL1        0.0767
      9 C          60.2016   86.5838    9.0102 C.3     1  UNL1        0.0353
     10 N          61.4260   85.9897    8.9592 N.am    1  UNL1       -0.2814
     11 C          61.0485   86.6625   10.2457 C.2     1  UNL1        0.2437
     12 O          59.7156   87.3380   10.3757 O.2     1  UNL1       -0.2731
     13 H          61.5410   87.1553   12.1243 H       1  UNL1        0.1188
     14 H          59.9364   86.8200   11.8288 H       1  UNL1        0.1188
     15 N          61.7824   85.7271   12.5558 N.am    1  UNL1       -0.2978
     16 C          62.9340   84.9547   13.1277 C.2     1  UNL1        0.2256
     17 O          64.3964   84.8719   12.8043 O.2     1  UNL1       -0.2748
     18 H          60.8811   85.6220   12.9377 H       1  UNL1        0.1498
     19 C          62.7124   84.0222   14.2815 C.3     1  UNL1        0.0876
     20 C          62.5171   83.5434   15.6895 C.3     1  UNL1        0.0135
     21 C          62.7110   85.0052   15.4145 C.3     1  UNL1        0.0135
     22 C          62.6369   82.7152   13.5492 C.ar    1  UNL1       -0.0144
     23 C          62.0267   81.5171   14.2141 C.ar    1  UNL1       -0.0007
     24 C          61.9512   80.2101   13.4817 C.ar    1  UNL1        0.0369
     25 C          62.4859   80.1015   12.0844 C.ar    1  UNL1        0.1468
     26 C          63.0961   81.2996   11.4196 C.ar    1  UNL1        0.0369
     27 C          63.1716   82.6065   12.1520 C.ar    1  UNL1       -0.0007
     28 O          62.4104   78.7945   11.3521 O.3     1  UNL1       -0.4045
     29 C          63.1056   78.6329   10.0328 C.3     1  UNL1        0.5753
     30 F          63.8009   78.4712    8.7135 F       1  UNL1       -0.1328
     31 F          63.5298   77.2488   10.4260 F       1  UNL1       -0.1328
     32 F          62.6815   80.0169    9.6397 F       1  UNL1       -0.1328
     33 C          63.1810   87.5894   11.4045 C.3     1  UNL1        0.0562
     34 C          63.3974   88.5224   12.5590 C.ar    1  UNL1       -0.0094
     35 C          64.0022   88.0113   13.8330 C.ar    1  UNL1       -0.0025
     36 C          64.2186   88.9442   14.9876 C.ar    1  UNL1        0.0111
     37 C          63.8302   90.3882   14.8680 C.ar    1  UNL1        0.0585
     38 CL         64.0467   91.3211   16.0225 Cl      1  UNL1       -0.0822
     39 C          63.2255   90.8992   13.5940 C.ar    1  UNL1        0.0225
     40 C          63.0091   89.9663   12.4395 C.ar    1  UNL1        0.0546
     41 CL         62.4044   90.4774   11.1655 Cl      1  UNL1       -0.0825
@<TRIPOS>BOND
     1     2     3    1
     2     3     4    1
     3     5     4    1
     4     5     6    1
     5     6     7    1
     6     8     7    1
     7     8     9    1
     8     8    10    1
     9    10    11   am
    10    11    12    2
    11    11     1    1
    12     1    33    1
    13    33    34    1
    14    34    35   ar
    15    35    36   ar
    16    36    37   ar
    17    37    38    1
    18    37    39   ar
    19    39    40   ar
    20    40    41    1
    21     1    15    1
    22    15    16   am
    23    16    17    2
    24    16    19    1
    25    19    22    1
    26    22    23   ar
    27    23    24   ar
    28    24    25   ar
    29    25    28    1
    30    28    29    1
    31    29    30    1
    32    29    31    1
    33    29    32    1
    34    25    26   ar
    35    26    27   ar
    36    19    20    1
    37    20    21    1
    38     9     3    1
    39    40    34   ar
    40    21    19    1
    41    10     5    1
    42    27    22   ar
    43     2    13    1
    44     2    14    1
    45    15    18    1
