@<TRIPOS>MOLECULE
*****
 26 28 0 0 0
SMALL
GASTEIGER

@<TRIPOS>ATOM
      1 N          62.0555   90.1750   13.0081 N.pl3   1  UNL1       -0.2152
      2 H          61.4328   90.3344   13.7538 H       1  UNL1        0.1737
      3 C          63.4106   90.8184   13.0118 C.ar    1  UNL1        0.0635
      4 C          63.9333   91.4733   11.7678 C.ar    1  UNL1        0.0270
      5 C          65.2883   92.1166   11.7716 C.ar    1  UNL1        0.0589
      6 CL         65.8112   92.7715   10.5275 Cl      1  UNL1       -0.0822
      7 C          66.1206   92.1050   13.0195 C.ar    1  UNL1        0.0112
      8 C          65.5978   91.4501   14.2636 C.ar    1  UNL1       -0.0002
      9 C          64.2428   90.8068   14.2597 C.ar    1  UNL1        0.0168
     10 C          63.7200   90.1518   15.5039 C.3     1  UNL1        0.1568
     11 N          63.7378   88.6571   15.6288 N.ar    1  UNL1       -0.2256
     12 C          64.4825   87.7068   14.7386 C.ar    1  UNL1        0.1196
     13 C          64.2191   86.3127   15.2254 C.ar    1  UNL1        0.1441
     14 N          63.3116   86.4014   16.4165 N.ar    1  UNL1       -0.1271
     15 N          63.0142   87.8503   16.6658 N.ar    1  UNL1       -0.0634
     16 O          62.7732   88.3513   12.1962 O.2     1  UNL1       -0.1499
     17 S          61.6492   89.2888   11.8681 S.O2    1  UNL1        0.0736
     18 O          60.5252   90.2263   11.5399 O.2     1  UNL1       -0.1499
     19 C          61.2429   88.4026   10.7281 C.ar    1  UNL1        0.1261
     20 C          61.6153   86.9497   10.7380 C.ar    1  UNL1        0.0211
     21 C          61.2091   86.0635    9.5979 C.ar    1  UNL1        0.0136
     22 C          60.4303   86.6303    8.4480 C.ar    1  UNL1        0.0683
     23 CL         60.0241   85.7441    7.3080 Cl      1  UNL1       -0.0814
     24 C          60.0579   88.0833    8.4381 C.ar    1  UNL1        0.0695
     25 CL         59.2792   88.6501    7.2882 Cl      1  UNL1       -0.0813
     26 C          60.4642   88.9695    9.5781 C.ar    1  UNL1        0.0324
@<TRIPOS>BOND
     1    16    17    2
     2    17    18    2
     3    17     1    1
     4     1     3    1
     5     3     4   ar
     6     4     5   ar
     7     5     6    1
     8     5     7   ar
     9     7     8   ar
    10     8     9   ar
    11     9    10    1
    12    10    11    1
    13    11    12   ar
    14    12    13   ar
    15    13    14   ar
    16    14    15   ar
    17    17    19    1
    18    19    20   ar
    19    20    21   ar
    20    21    22   ar
    21    22    23    1
    22    22    24   ar
    23    24    25    1
    24    24    26   ar
    25     9     3   ar
    26    15    11   ar
    27    26    19   ar
    28     1     2    1
@<TRIPOS>MOLECULE
*****
 26 28 0 0 0
SMALL
GASTEIGER

@<TRIPOS>ATOM
      1 N          61.1687   88.6288   11.8038 N.pl3   1  UNL1       -0.2152
      2 H          60.6535   88.4034   12.6120 H       1  UNL1        0.1737
      3 C          60.8410   87.9687   10.4972 C.ar    1  UNL1        0.0635
      4 C          60.1988   88.7607    9.3971 C.ar    1  UNL1        0.0270
      5 C          59.8712   88.1007    8.0907 C.ar    1  UNL1        0.0589
      6 CL         59.2288   88.8926    6.9905 Cl      1  UNL1       -0.0822
      7 C          60.1859   86.6487    7.8842 C.ar    1  UNL1        0.0112
      8 C          60.8282   85.8567    8.9843 C.ar    1  UNL1       -0.0002
      9 C          61.1558   86.5167   10.2908 C.ar    1  UNL1        0.0168
     10 C          61.7981   85.7248   11.3910 C.3     1  UNL1        0.1568
     11 N          62.6302   84.5211   11.0612 N.ar    1  UNL1       -0.2256
     12 C          62.7257   83.2652   11.8758 C.ar    1  UNL1        0.1196
     13 C          63.6674   82.3298   11.1770 C.ar    1  UNL1        0.1441
     14 N          64.1539   83.0076    9.9305 N.ar    1  UNL1       -0.1271
     15 N          63.5129   84.3619    9.8589 N.ar    1  UNL1       -0.0634
     16 O          63.1867   88.5848   12.4563 O.2     1  UNL1       -0.1499
     17 S          62.2811   89.6321   11.8790 S.O2    1  UNL1        0.0736
     18 O          61.3756   90.6794   11.3018 O.2     1  UNL1       -0.1499
     19 C          63.3936   90.6355   11.9542 C.ar    1  UNL1        0.1261
     20 C          63.7643   91.4366   10.7415 C.ar    1  UNL1        0.0211
     21 C          64.8768   92.4400   10.8167 C.ar    1  UNL1        0.0136
     22 C          65.6186   92.6422   12.1047 C.ar    1  UNL1        0.0683
     23 CL         66.7311   93.6455   12.1799 Cl      1  UNL1       -0.0814
     24 C          65.2479   91.8410   13.3175 C.ar    1  UNL1        0.0695
     25 CL         65.9897   92.0432   14.6054 Cl      1  UNL1       -0.0813
     26 C          64.1354   90.8377   13.2423 C.ar    1  UNL1        0.0324
@<TRIPOS>BOND
     1    16    17    2
     2    17    18    2
     3    17     1    1
     4     1     3    1
     5     3     4   ar
     6     4     5   ar
     7     5     6    1
     8     5     7   ar
     9     7     8   ar
    10     8     9   ar
    11     9    10    1
    12    10    11    1
    13    11    12   ar
    14    12    13   ar
    15    13    14   ar
    16    14    15   ar
    17    17    19    1
    18    19    20   ar
    19    20    21   ar
    20    21    22   ar
    21    22    23    1
    22    22    24   ar
    23    24    25    1
    24    24    26   ar
    25     9     3   ar
    26    15    11   ar
    27    26    19   ar
    28     1     2    1
@<TRIPOS>MOLECULE
*****
 26 28 0 0 0
SMALL
GASTEIGER

@<TRIPOS>ATOM
      1 N          61.1567   88.7995   11.9321 N.pl3   1  UNL1       -0.2152
      2 H          60.5197   88.7572   12.6815 H       1  UNL1        0.1737
      3 C          61.0001   87.8747   10.7614 C.ar    1  UNL1        0.0635
      4 C          60.0273   88.2059    9.6688 C.ar    1  UNL1        0.0270
      5 C          59.8708   87.2812    8.4983 C.ar    1  UNL1        0.0589
      6 CL         58.8979   87.6124    7.4056 Cl      1  UNL1       -0.0822
      7 C          60.6871   86.0252    8.4203 C.ar    1  UNL1        0.0112
      8 C          61.6599   85.6939    9.5129 C.ar    1  UNL1       -0.0002
      9 C          61.8164   86.6187   10.6835 C.ar    1  UNL1        0.0168
     10 C          62.7893   86.2875   11.7762 C.3     1  UNL1        0.1568
     11 N          62.6804   84.9821   12.5071 N.ar    1  UNL1       -0.2256
     12 C          62.8177   83.6175   11.8998 C.ar    1  UNL1        0.1196
     13 C          62.6372   82.6042   12.9910 C.ar    1  UNL1        0.1441
     14 N          62.3882   83.3426   14.2727 N.ar    1  UNL1       -0.1271
     15 N          62.4149   84.8122   13.9736 N.ar    1  UNL1       -0.0634
     16 O          62.2061   89.9208   10.4687 O.2     1  UNL1       -0.1499
     17 S          62.2839   89.7887   11.9608 S.O2    1  UNL1        0.0736
     18 O          62.3617   89.6567   13.4530 O.2     1  UNL1       -0.1499
     19 C          63.4111   90.7779   11.9896 C.ar    1  UNL1        0.1261
     20 C          63.7973   91.5116   10.7396 C.ar    1  UNL1        0.0211
     21 C          64.9245   92.5008   10.7683 C.ar    1  UNL1        0.0136
     22 C          65.6656   92.7564   12.0471 C.ar    1  UNL1        0.0683
     23 CL         66.7928   93.7456   12.0759 Cl      1  UNL1       -0.0814
     24 C          65.2795   92.0227   13.2973 C.ar    1  UNL1        0.0695
     25 CL         66.0205   92.2783   14.5761 Cl      1  UNL1       -0.0813
     26 C          64.1522   91.0335   13.2685 C.ar    1  UNL1        0.0324
@<TRIPOS>BOND
     1    16    17    2
     2    17    18    2
     3    17     1    1
     4     1     3    1
     5     3     4   ar
     6     4     5   ar
     7     5     6    1
     8     5     7   ar
     9     7     8   ar
    10     8     9   ar
    11     9    10    1
    12    10    11    1
    13    11    12   ar
    14    12    13   ar
    15    13    14   ar
    16    14    15   ar
    17    17    19    1
    18    19    20   ar
    19    20    21   ar
    20    21    22   ar
    21    22    23    1
    22    22    24   ar
    23    24    25    1
    24    24    26   ar
    25     9     3   ar
    26    15    11   ar
    27    26    19   ar
    28     1     2    1
@<TRIPOS>MOLECULE
*****
 26 28 0 0 0
SMALL
GASTEIGER

@<TRIPOS>ATOM
      1 N          61.5658   87.0858   11.6714 N.pl3   1  UNL1       -0.2152
      2 H          60.5861   87.1357   11.7544 H       1  UNL1        0.1737
      3 C          62.2263   85.7758   11.3588 C.ar    1  UNL1        0.0635
      4 C          62.4464   84.7681   12.4479 C.ar    1  UNL1        0.0270
      5 C          63.1068   83.4581   12.1353 C.ar    1  UNL1        0.0589
      6 CL         63.3269   82.4504   13.2243 Cl      1  UNL1       -0.0822
      7 C          63.5472   83.1559   10.7336 C.ar    1  UNL1        0.0112
      8 C          63.3272   84.1636    9.6445 C.ar    1  UNL1       -0.0002
      9 C          62.6667   85.4735    9.9571 C.ar    1  UNL1        0.0168
     10 C          62.4466   86.4813    8.8681 C.3     1  UNL1        0.1568
     11 N          61.0648   86.7204    8.3356 N.ar    1  UNL1       -0.2256
     12 C          60.2948   88.0044    8.4266 C.ar    1  UNL1        0.1196
     13 C          58.9645   87.7950    7.7658 C.ar    1  UNL1        0.1441
     14 N          58.9124   86.3816    7.2664 N.ar    1  UNL1       -0.1271
     15 N          60.2105   85.7174    7.6185 N.ar    1  UNL1       -0.0634
     16 O          61.3972   89.1134   11.0711 O.2     1  UNL1       -0.1499
     17 S          62.3980   88.3198   11.8575 S.O2    1  UNL1        0.0736
     18 O          63.3989   87.5261   12.6439 O.2     1  UNL1       -0.1499
     19 C          63.2303   89.5538   12.0436 C.ar    1  UNL1        0.1261
     20 C          63.3826   90.5326   10.9173 C.ar    1  UNL1        0.0211
     21 C          64.2149   91.7666   11.1034 C.ar    1  UNL1        0.0136
     22 C          64.8948   92.0217   12.4158 C.ar    1  UNL1        0.0683
     23 CL         65.7271   93.2557   12.6019 Cl      1  UNL1       -0.0814
     24 C          64.7426   91.0428   13.5422 C.ar    1  UNL1        0.0695
     25 CL         65.4226   91.2980   14.8547 Cl      1  UNL1       -0.0813
     26 C          63.9103   89.8089   13.3561 C.ar    1  UNL1        0.0324
@<TRIPOS>BOND
     1    16    17    2
     2    17    18    2
     3    17     1    1
     4     1     3    1
     5     3     4   ar
     6     4     5   ar
     7     5     6    1
     8     5     7   ar
     9     7     8   ar
    10     8     9   ar
    11     9    10    1
    12    10    11    1
    13    11    12   ar
    14    12    13   ar
    15    13    14   ar
    16    14    15   ar
    17    17    19    1
    18    19    20   ar
    19    20    21   ar
    20    21    22   ar
    21    22    23    1
    22    22    24   ar
    23    24    25    1
    24    24    26   ar
    25     9     3   ar
    26    15    11   ar
    27    26    19   ar
    28     1     2    1
@<TRIPOS>MOLECULE
*****
 26 28 0 0 0
SMALL
GASTEIGER

@<TRIPOS>ATOM
      1 N          63.1373   87.1456   12.2781 N.pl3   1  UNL1       -0.2152
      2 H          63.8239   87.6401   12.7813 H       1  UNL1        0.1737
      3 C          62.2456   87.8710   11.3144 C.ar    1  UNL1        0.0635
      4 C          61.1764   87.1238   10.5738 C.ar    1  UNL1        0.0270
      5 C          60.2848   87.8492    9.6101 C.ar    1  UNL1        0.0589
      6 CL         59.2155   87.1020    8.8695 Cl      1  UNL1       -0.0822
      7 C          60.4623   89.3219    9.3870 C.ar    1  UNL1        0.0112
      8 C          61.5315   90.0691   10.1276 C.ar    1  UNL1       -0.0002
      9 C          62.4231   89.3437   11.0913 C.ar    1  UNL1        0.0168
     10 C          63.4923   90.0909   11.8319 C.3     1  UNL1        0.1568
     11 N          63.4340   90.1980   13.3270 N.ar    1  UNL1       -0.2256
     12 C          64.4427   90.8814   14.2019 C.ar    1  UNL1        0.1196
     13 C          63.9889   90.7463   15.6253 C.ar    1  UNL1        0.1441
     14 N          62.6997   89.9795   15.6299 N.ar    1  UNL1       -0.1271
     15 N          62.3568   89.6406   14.2095 N.ar    1  UNL1       -0.0634
     16 O          63.1396   85.8476   13.9559 O.2     1  UNL1       -0.1499
     17 S          62.9827   85.6666   12.4752 S.O2    1  UNL1        0.0736
     18 O          62.8258   85.4857   10.9944 O.2     1  UNL1       -0.1499
     19 C          62.8282   84.1877   12.6722 C.ar    1  UNL1        0.1261
     20 C          62.4647   83.6449   14.0225 C.ar    1  UNL1        0.0211
     21 C          62.3102   82.1660   14.2196 C.ar    1  UNL1        0.0136
     22 C          62.5191   81.2298   13.0664 C.ar    1  UNL1        0.0683
     23 CL         62.3646   79.7508   13.2635 Cl      1  UNL1       -0.0814
     24 C          62.8826   81.7726   11.7160 C.ar    1  UNL1        0.0695
     25 CL         63.0916   80.8364   10.5629 Cl      1  UNL1       -0.0813
     26 C          63.0372   83.2515   11.5190 C.ar    1  UNL1        0.0324
@<TRIPOS>BOND
     1    16    17    2
     2    17    18    2
     3    17     1    1
     4     1     3    1
     5     3     4   ar
     6     4     5   ar
     7     5     6    1
     8     5     7   ar
     9     7     8   ar
    10     8     9   ar
    11     9    10    1
    12    10    11    1
    13    11    12   ar
    14    12    13   ar
    15    13    14   ar
    16    14    15   ar
    17    17    19    1
    18    19    20   ar
    19    20    21   ar
    20    21    22   ar
    21    22    23    1
    22    22    24   ar
    23    24    25    1
    24    24    26   ar
    25     9     3   ar
    26    15    11   ar
    27    26    19   ar
    28     1     2    1
@<TRIPOS>MOLECULE
*****
 26 28 0 0 0
SMALL
GASTEIGER

@<TRIPOS>ATOM
      1 N          62.8312   86.9740   11.9719 N.pl3   1  UNL1       -0.2152
      2 H          63.4093   87.4708   12.5949 H       1  UNL1        0.1737
      3 C          61.9623   87.7168   11.0005 C.ar    1  UNL1        0.0635
      4 C          60.8797   86.9925   10.2568 C.ar    1  UNL1        0.0270
      5 C          60.0110   87.7353    9.2855 C.ar    1  UNL1        0.0589
      6 CL         58.9283   87.0109    8.5416 Cl      1  UNL1       -0.0822
      7 C          60.2248   89.2024    9.0580 C.ar    1  UNL1        0.0112
      8 C          61.3074   89.9268    9.8018 C.ar    1  UNL1       -0.0002
      9 C          62.1762   89.1839   10.7731 C.ar    1  UNL1        0.0168
     10 C          63.2588   89.9083   11.5169 C.3     1  UNL1        0.1568
     11 N          63.2604   89.9187   13.0169 N.ar    1  UNL1       -0.2256
     12 C          64.4617   90.1024   13.8961 C.ar    1  UNL1        0.1196
     13 C          64.0047   90.0446   15.3236 C.ar    1  UNL1        0.1441
     14 N          62.5208   89.8252   15.3266 N.ar    1  UNL1       -0.1271
     15 N          62.0608   89.7474   13.9010 N.ar    1  UNL1       -0.0634
     16 O          62.9316   85.4513   10.4983 O.2     1  UNL1       -0.1499
     17 S          62.8191   85.4742   11.9939 S.O2    1  UNL1        0.0736
     18 O          62.7067   85.4971   13.4895 O.2     1  UNL1       -0.1499
     19 C          62.8071   83.9744   12.0160 C.ar    1  UNL1        0.1261
     20 C          63.3986   83.2028   10.8738 C.ar    1  UNL1        0.0211
     21 C          63.3865   81.7030   10.8958 C.ar    1  UNL1        0.0136
     22 C          62.7830   80.9748   12.0601 C.ar    1  UNL1        0.0683
     23 CL         62.7709   79.4750   12.0821 Cl      1  UNL1       -0.0814
     24 C          62.1914   81.7465   13.2023 C.ar    1  UNL1        0.0695
     25 CL         61.5878   81.0183   14.3666 Cl      1  UNL1       -0.0813
     26 C          62.2035   83.2463   13.1803 C.ar    1  UNL1        0.0324
@<TRIPOS>BOND
     1    16    17    2
     2    17    18    2
     3    17     1    1
     4     1     3    1
     5     3     4   ar
     6     4     5   ar
     7     5     6    1
     8     5     7   ar
     9     7     8   ar
    10     8     9   ar
    11     9    10    1
    12    10    11    1
    13    11    12   ar
    14    12    13   ar
    15    13    14   ar
    16    14    15   ar
    17    17    19    1
    18    19    20   ar
    19    20    21   ar
    20    21    22   ar
    21    22    23    1
    22    22    24   ar
    23    24    25    1
    24    24    26   ar
    25     9     3   ar
    26    15    11   ar
    27    26    19   ar
    28     1     2    1
@<TRIPOS>MOLECULE
*****
 26 28 0 0 0
SMALL
GASTEIGER

@<TRIPOS>ATOM
      1 N          62.7819   84.6127   11.4788 N.pl3   1  UNL1       -0.2152
      2 H          62.7796   83.6511   11.2678 H       1  UNL1        0.1737
      3 C          63.5354   85.1165   12.6740 C.ar    1  UNL1        0.0635
      4 C          63.4804   86.5709   13.0369 C.ar    1  UNL1        0.0270
      5 C          64.2339   87.0746   14.2321 C.ar    1  UNL1        0.0589
      6 CL         64.1789   88.5291   14.5950 Cl      1  UNL1       -0.0822
      7 C          65.0422   86.1240   15.0644 C.ar    1  UNL1        0.0112
      8 C          65.0972   84.6696   14.7015 C.ar    1  UNL1       -0.0002
      9 C          64.3437   84.1659   13.5064 C.ar    1  UNL1        0.0168
     10 C          64.3987   82.7114   13.1434 C.3     1  UNL1        0.1568
     11 N          63.2183   81.8260   13.4132 N.ar    1  UNL1       -0.2256
     12 C          62.0281   82.1760   14.2565 C.ar    1  UNL1        0.1196
     13 C          61.0950   81.0015   14.2515 C.ar    1  UNL1        0.1441
     14 N          61.7085   79.9257   13.4053 N.ar    1  UNL1       -0.1271
     15 N          63.0208   80.4353   12.8872 N.ar    1  UNL1       -0.0634
     16 O          61.1855   85.9778   11.7757 O.2     1  UNL1       -0.1499
     17 S          62.0320   85.5741   10.6050 S.O2    1  UNL1        0.0736
     18 O          62.8784   85.1704    9.4343 O.2     1  UNL1       -0.1499
     19 C          61.2821   86.5355    9.7313 C.ar    1  UNL1        0.1261
     20 C          60.7092   86.0716    8.4250 C.ar    1  UNL1        0.0211
     21 C          59.9593   87.0329    7.5513 C.ar    1  UNL1        0.0136
     22 C          59.7822   88.4582    7.9839 C.ar    1  UNL1        0.0683
     23 CL         59.0323   89.4196    7.1102 Cl      1  UNL1       -0.0814
     24 C          60.3551   88.9222    9.2903 C.ar    1  UNL1        0.0695
     25 CL         60.1780   90.3474    9.7229 Cl      1  UNL1       -0.0813
     26 C          61.1050   87.9608   10.1640 C.ar    1  UNL1        0.0324
@<TRIPOS>BOND
     1    16    17    2
     2    17    18    2
     3    17     1    1
     4     1     3    1
     5     3     4   ar
     6     4     5   ar
     7     5     6    1
     8     5     7   ar
     9     7     8   ar
    10     8     9   ar
    11     9    10    1
    12    10    11    1
    13    11    12   ar
    14    12    13   ar
    15    13    14   ar
    16    14    15   ar
    17    17    19    1
    18    19    20   ar
    19    20    21   ar
    20    21    22   ar
    21    22    23    1
    22    22    24   ar
    23    24    25    1
    24    24    26   ar
    25     9     3   ar
    26    15    11   ar
    27    26    19   ar
    28     1     2    1
@<TRIPOS>MOLECULE
*****
 26 28 0 0 0
SMALL
GASTEIGER

@<TRIPOS>ATOM
      1 N          63.0576   86.5094   12.7108 N.pl3   1  UNL1       -0.2152
      2 H          63.3077   87.0987   13.4588 H       1  UNL1        0.1737
      3 C          63.4752   85.0687   12.7189 C.ar    1  UNL1        0.0635
      4 C          63.1261   84.1801   11.5621 C.ar    1  UNL1        0.0270
      5 C          63.5437   82.7395   11.5702 C.ar    1  UNL1        0.0589
      6 CL         63.1945   81.8508   10.4133 Cl      1  UNL1       -0.0822
      7 C          64.3105   82.1874   12.7353 C.ar    1  UNL1        0.0112
      8 C          64.6596   83.0760   13.8921 C.ar    1  UNL1       -0.0002
      9 C          64.2420   84.5167   13.8840 C.ar    1  UNL1        0.0168
     10 C          64.5912   85.4054   15.0409 C.3     1  UNL1        0.1568
     11 N          63.5123   85.9034   15.9563 N.ar    1  UNL1       -0.2256
     12 C          63.4952   87.2279   16.6603 C.ar    1  UNL1        0.1196
     13 C          62.2334   87.3075   17.4675 C.ar    1  UNL1        0.1441
     14 N          61.4707   86.0323   17.2625 N.ar    1  UNL1       -0.1271
     15 N          62.2611   85.1645   16.3285 N.ar    1  UNL1       -0.0634
     16 O          61.3419   85.8678   11.6410 O.2     1  UNL1       -0.1499
     17 S          62.2589   87.0523   11.5631 S.O2    1  UNL1        0.0736
     18 O          63.1759   88.2368   11.4851 O.2     1  UNL1       -0.1499
     19 C          61.4602   87.5952   10.4153 C.ar    1  UNL1        0.1261
     20 C          61.3865   89.0758   10.1867 C.ar    1  UNL1        0.0211
     21 C          60.5878   89.6186    9.0390 C.ar    1  UNL1        0.0136
     22 C          59.8627   88.6809    8.1198 C.ar    1  UNL1        0.0683
     23 CL         59.0640   89.2238    6.9720 Cl      1  UNL1       -0.0814
     24 C          59.9364   87.2002    8.3483 C.ar    1  UNL1        0.0695
     25 CL         59.2114   86.2624    7.4292 Cl      1  UNL1       -0.0813
     26 C          60.7351   86.6573    9.4961 C.ar    1  UNL1        0.0324
@<TRIPOS>BOND
     1    16    17    2
     2    17    18    2
     3    17     1    1
     4     1     3    1
     5     3     4   ar
     6     4     5   ar
     7     5     6    1
     8     5     7   ar
     9     7     8   ar
    10     8     9   ar
    11     9    10    1
    12    10    11    1
    13    11    12   ar
    14    12    13   ar
    15    13    14   ar
    16    14    15   ar
    17    17    19    1
    18    19    20   ar
    19    20    21   ar
    20    21    22   ar
    21    22    23    1
    22    22    24   ar
    23    24    25    1
    24    24    26   ar
    25     9     3   ar
    26    15    11   ar
    27    26    19   ar
    28     1     2    1
@<TRIPOS>MOLECULE
*****
 26 28 0 0 0
SMALL
GASTEIGER

@<TRIPOS>ATOM
      1 N          61.7484   86.6469   11.8049 N.pl3   1  UNL1       -0.2152
      2 H          61.3806   86.0486   12.4949 H       1  UNL1        0.1737
      3 C          61.4898   86.3669   10.3541 C.ar    1  UNL1        0.0635
      4 C          60.3667   87.0633    9.6444 C.ar    1  UNL1        0.0270
      5 C          60.1082   86.7832    8.1936 C.ar    1  UNL1        0.0589
      6 CL         58.9851   87.4796    7.4839 Cl      1  UNL1       -0.0822
      7 C          60.9728   85.8068    7.4526 C.ar    1  UNL1        0.0112
      8 C          62.0958   85.1104    8.1623 C.ar    1  UNL1       -0.0002
      9 C          62.3543   85.3904    9.6131 C.ar    1  UNL1        0.0168
     10 C          63.4774   84.6940   10.3229 C.3     1  UNL1        0.1568
     11 N          63.1821   83.5756   11.2778 N.ar    1  UNL1       -0.2256
     12 C          63.4264   82.1166   11.0297 C.ar    1  UNL1        0.1196
     13 C          62.9859   81.3591   12.2471 C.ar    1  UNL1        0.1441
     14 N          62.4693   82.3500   13.2477 N.ar    1  UNL1       -0.1271
     15 N          62.5905   83.7198   12.6487 N.ar    1  UNL1       -0.0634
     16 O          63.5124   86.9402   12.9460 O.2     1  UNL1       -0.1499
     17 S          62.5673   87.8384   12.2044 S.O2    1  UNL1        0.0736
     18 O          61.6222   88.7366   11.4628 O.2     1  UNL1       -0.1499
     19 C          63.3862   89.0300   12.6039 C.ar    1  UNL1        0.1261
     20 C          64.0623   89.0607   13.9425 C.ar    1  UNL1        0.0211
     21 C          64.8812   90.2523   14.3420 C.ar    1  UNL1        0.0136
     22 C          65.0241   91.4131   13.4028 C.ar    1  UNL1        0.0683
     23 CL         65.8430   92.6046   13.8023 Cl      1  UNL1       -0.0814
     24 C          64.3480   91.3824   12.0641 C.ar    1  UNL1        0.0695
     25 CL         64.4908   92.5432   11.1250 Cl      1  UNL1       -0.0813
     26 C          63.5291   90.1909   11.6647 C.ar    1  UNL1        0.0324
@<TRIPOS>BOND
     1    16    17    2
     2    17    18    2
     3    17     1    1
     4     1     3    1
     5     3     4   ar
     6     4     5   ar
     7     5     6    1
     8     5     7   ar
     9     7     8   ar
    10     8     9   ar
    11     9    10    1
    12    10    11    1
    13    11    12   ar
    14    12    13   ar
    15    13    14   ar
    16    14    15   ar
    17    17    19    1
    18    19    20   ar
    19    20    21   ar
    20    21    22   ar
    21    22    23    1
    22    22    24   ar
    23    24    25    1
    24    24    26   ar
    25     9     3   ar
    26    15    11   ar
    27    26    19   ar
    28     1     2    1
