@<TRIPOS>MOLECULE
*****
 55 61 0 0 0
SMALL
GASTEIGER

@<TRIPOS>ATOM
      1 N          62.9954   84.0747    9.5041 N.3     1  UNL1       -0.1862
      2 C          62.3782   84.1406    8.1386 C.3     1  UNL1        0.1775
      3 C          61.5344   85.3193    7.7529 C.2     1  UNL1        0.2452
      4 O          60.9172   85.3851    6.3873 O.2     1  UNL1       -0.2732
      5 N          61.3078   86.4321    8.7328 N.am    1  UNL1       -0.2541
      6 C          60.4640   87.6108    8.3471 C.3     1  UNL1        0.1577
      7 C          60.2374   88.7236    9.3270 C.2     1  UNL1        0.2445
      8 O          59.3936   89.9023    8.9413 O.2     1  UNL1       -0.2731
      9 N          60.8546   88.6578   10.6926 N.am    1  UNL1       -0.2705
     10 C          61.6983   87.4791   11.0783 C.3     1  UNL1        0.1359
     11 C          61.9250   86.3663   10.0983 C.3     1  UNL1        0.1908
     12 N          62.7687   85.1876   10.4840 N.am    1  UNL1       -0.1863
     13 C          63.3859   85.1218   11.8496 C.2     1  UNL1        0.3191
     14 O          63.1593   86.2346   12.8294 O.2     1  UNL1       -0.2512
     15 N          64.2297   83.9431   12.2352 N.am    1  UNL1       -0.2836
     16 H          64.3784   83.2127   11.5921 H       1  UNL1        0.1513
     17 C          63.8392   82.8961    9.8898 C.3     1  UNL1        0.1188
     18 C          62.7564   81.2654   11.5982 C.2     1  UNL1       -0.0034
     19 C          63.1915   81.5785   10.1972 C.2     1  UNL1       -0.0071
     20 C          59.8468   87.6766    6.9816 C.3     1  UNL1        0.0556
     21 C          59.5803   89.0072    6.3424 C.ar    1  UNL1       -0.0198
     22 C          60.7159   89.8110    5.7820 C.ar    1  UNL1       -0.0011
     23 C          60.4494   91.1415    5.1428 C.ar    1  UNL1        0.0363
     24 C          59.0471   91.6682    5.0639 C.ar    1  UNL1        0.1337
     25 O          58.7806   92.9988    4.4247 O.3     1  UNL1       -0.5055
     26 C          57.9114   90.8644    5.6243 C.ar    1  UNL1        0.0363
     27 C          58.1779   89.5339    6.2635 C.ar    1  UNL1       -0.0011
     28 H          59.4900   93.5009    4.0746 H       1  UNL1        0.2922
     29 C          60.6279   89.7706   11.6725 C.3     1  UNL1        0.1217
     30 C          61.6020   89.9951   12.7909 C.ar    1  UNL1        0.0135
     31 C          61.2915   89.4897   14.1686 C.ar    1  UNL1       -0.0012
     32 C          62.2655   89.7142   15.2871 C.ar    1  UNL1       -0.0002
     33 C          63.5500   90.4441   15.0278 C.ar    1  UNL1        0.0015
     34 C          63.8605   90.9495   13.6501 C.ar    1  UNL1        0.0171
     35 C          65.0373   91.6972   13.0968 C.ar    1  UNL1        0.0216
     36 C          64.7906   91.9348   11.6365 C.ar    1  UNL1        0.0760
     37 N          63.4614   91.3340   11.2872 N.ar    1  UNL1       -0.3242
     38 C          62.8196   91.3409    9.9314 C.3     1  UNL1        0.1305
     39 C          62.8865   90.7250   12.5316 C.ar    1  UNL1        0.0575
     40 C          66.2482   92.1311   13.8685 C.ar    1  UNL1        0.0399
     41 C          66.0945   92.6993   15.2482 C.ar    1  UNL1        0.1034
     42 N          67.3054   93.1331   16.0198 N.ar    1  UNL1       -0.2121
     43 C          68.6701   92.9988   15.4117 C.ar    1  UNL1        0.2203
     44 N          68.8238   92.4306   14.0321 N.ar    1  UNL1       -0.2121
     45 C          67.6129   91.9967   13.2605 C.ar    1  UNL1        0.1034
     46 N          69.8809   93.4327   16.1834 N.pl3   1  UNL1       -0.2747
     47 C          70.5633   92.4716   17.1112 C.3     1  UNL1        0.1151
     48 C          70.4096   94.8277   16.0273 C.3     1  UNL1        0.1151
     49 C          64.8469   83.8772   13.6008 C.3     1  UNL1        0.1177
     50 C          64.2111   84.6064   14.7471 C.ar    1  UNL1       -0.0025
     51 C          63.0375   84.0039   15.4609 C.ar    1  UNL1       -0.0026
     52 C          62.4017   84.7331   16.6072 C.ar    1  UNL1       -0.0003
     53 C          62.9396   86.0648   17.0398 C.ar    1  UNL1       -0.0000
     54 C          64.1134   86.6674   16.3261 C.ar    1  UNL1       -0.0003
     55 C          64.7491   85.9382   15.1797 C.ar    1  UNL1       -0.0026
@<TRIPOS>BOND
     1    18    19    2
     2    19    17    1
     3    17     1    1
     4     1     2    1
     5     2     3    1
     6     3     4    2
     7     3     5   am
     8     5     6    1
     9     6    20    1
    10    20    21    1
    11    21    22   ar
    12    22    23   ar
    13    23    24   ar
    14    24    25    1
    15    24    26   ar
    16    26    27   ar
    17     6     7    1
    18     7     8    2
    19     7     9   am
    20     9    29    1
    21    29    30    1
    22    30    31   ar
    23    31    32   ar
    24    32    33   ar
    25    33    34   ar
    26    34    35   ar
    27    35    40    1
    28    40    41   ar
    29    41    42   ar
    30    42    43   ar
    31    43    46    1
    32    46    47    1
    33    46    48    1
    34    43    44   ar
    35    44    45   ar
    36    35    36   ar
    37    36    37   ar
    38    37    38    1
    39    37    39   ar
    40     9    10    1
    41    11    10    1
    42    11    12    1
    43    12    13   am
    44    13    14    2
    45    13    15   am
    46    15    49    1
    47    49    50    1
    48    50    51   ar
    49    51    52   ar
    50    52    53   ar
    51    53    54   ar
    52    54    55   ar
    53    12     1    1
    54    55    50   ar
    55    11     5    1
    56    27    21   ar
    57    39    30   ar
    58    39    34   ar
    59    45    40   ar
    60    25    28    1
    61    15    16    1
@<TRIPOS>MOLECULE
*****
 55 61 0 0 0
SMALL
GASTEIGER

@<TRIPOS>ATOM
      1 N          62.5384   84.0913    9.6275 N.3     1  UNL1       -0.1862
      2 C          61.7830   84.1111    8.3318 C.3     1  UNL1        0.1775
      3 C          61.0870   85.3638    7.8884 C.2     1  UNL1        0.2452
      4 O          60.3316   85.3835    6.5926 O.2     1  UNL1       -0.2732
      5 N          61.1464   86.5966    8.7408 N.am    1  UNL1       -0.2541
      6 C          60.4504   87.8492    8.2975 C.3     1  UNL1        0.1577
      7 C          60.5099   89.0820    9.1499 C.2     1  UNL1        0.2445
      8 O          59.8139   90.3346    8.7065 O.2     1  UNL1       -0.2731
      9 N          61.2653   89.0622   10.4457 N.am    1  UNL1       -0.2705
     10 C          61.9613   87.8096   10.8890 C.3     1  UNL1        0.1359
     11 C          61.9018   86.5768   10.0365 C.3     1  UNL1        0.1908
     12 N          62.5978   85.3241   10.4799 N.am    1  UNL1       -0.1863
     13 C          63.3532   85.3044   11.7757 C.2     1  UNL1        0.3191
     14 O          63.4126   86.5372   12.6281 O.2     1  UNL1       -0.2512
     15 N          64.0492   84.0517   12.2190 N.am    1  UNL1       -0.2836
     16 H          64.0102   83.2426   11.6595 H       1  UNL1        0.1513
     17 C          63.2343   82.8387   10.0708 C.3     1  UNL1        0.1188
     18 C          62.6035   81.3405   12.0975 C.2     1  UNL1       -0.0034
     19 C          62.4415   81.7056   10.6517 C.2     1  UNL1       -0.0071
     20 C          59.6950   87.8690    7.0018 C.3     1  UNL1        0.0556
     21 C          59.5266   89.1569    6.2514 C.ar    1  UNL1       -0.0198
     22 C          58.1682   89.7809    6.1280 C.ar    1  UNL1       -0.0011
     23 C          57.9998   91.0688    5.3776 C.ar    1  UNL1        0.0363
     24 C          59.1898   91.7326    4.7507 C.ar    1  UNL1        0.1337
     25 O          59.0214   93.0205    4.0003 O.3     1  UNL1       -0.5055
     26 C          60.5483   91.1086    4.8740 C.ar    1  UNL1        0.0363
     27 C          60.7167   89.8207    5.6244 C.ar    1  UNL1       -0.0011
     28 H          58.1728   93.4103    3.9232 H       1  UNL1        0.2922
     29 C          61.3247   90.2950   11.2981 C.3     1  UNL1        0.1217
     30 C          62.6059   91.0668   11.4124 C.ar    1  UNL1        0.0135
     31 C          63.0875   91.8958   10.2588 C.ar    1  UNL1       -0.0012
     32 C          64.3687   92.6676   10.3730 C.ar    1  UNL1       -0.0002
     33 C          65.1681   92.6103   11.6409 C.ar    1  UNL1        0.0015
     34 C          64.6865   91.7813   12.7945 C.ar    1  UNL1        0.0171
     35 C          65.2569   91.5332   14.1594 C.ar    1  UNL1        0.0216
     36 C          64.3283   90.6081   14.8887 C.ar    1  UNL1        0.0760
     37 N          63.1840   90.2845   13.9745 N.ar    1  UNL1       -0.3242
     38 C          62.0223   89.3924   14.2979 C.3     1  UNL1        0.1305
     39 C          63.4054   91.0096   12.6802 C.ar    1  UNL1        0.0575
     40 C          66.5321   92.1091   14.7002 C.ar    1  UNL1        0.0399
     41 C          67.8087   91.9625   13.9263 C.ar    1  UNL1        0.1034
     42 N          69.0837   92.5384   14.4671 N.ar    1  UNL1       -0.2121
     43 C          69.0823   93.2609   15.7816 C.ar    1  UNL1        0.2203
     44 N          67.8057   93.4075   16.5555 N.ar    1  UNL1       -0.2121
     45 C          66.5306   92.8316   16.0147 C.ar    1  UNL1        0.1034
     46 N          70.3574   93.8368   16.3223 N.pl3   1  UNL1       -0.2747
     47 C          70.9648   95.0487   15.6801 C.3     1  UNL1        0.1151
     48 C          71.0254   93.2007   17.5052 C.3     1  UNL1        0.1151
     49 C          64.8046   84.0319   13.5147 C.3     1  UNL1        0.1177
     50 C          64.2252   84.6917   14.7308 C.ar    1  UNL1       -0.0025
     51 C          64.7890   85.9934   15.2183 C.ar    1  UNL1       -0.0026
     52 C          64.2096   86.6532   16.4345 C.ar    1  UNL1       -0.0003
     53 C          63.0664   86.0113   17.1631 C.ar    1  UNL1       -0.0000
     54 C          62.5025   84.7096   16.6756 C.ar    1  UNL1       -0.0003
     55 C          63.0819   84.0498   15.4595 C.ar    1  UNL1       -0.0026
@<TRIPOS>BOND
     1    18    19    2
     2    19    17    1
     3    17     1    1
     4     1     2    1
     5     2     3    1
     6     3     4    2
     7     3     5   am
     8     5     6    1
     9     6    20    1
    10    20    21    1
    11    21    22   ar
    12    22    23   ar
    13    23    24   ar
    14    24    25    1
    15    24    26   ar
    16    26    27   ar
    17     6     7    1
    18     7     8    2
    19     7     9   am
    20     9    29    1
    21    29    30    1
    22    30    31   ar
    23    31    32   ar
    24    32    33   ar
    25    33    34   ar
    26    34    35   ar
    27    35    40    1
    28    40    41   ar
    29    41    42   ar
    30    42    43   ar
    31    43    46    1
    32    46    47    1
    33    46    48    1
    34    43    44   ar
    35    44    45   ar
    36    35    36   ar
    37    36    37   ar
    38    37    38    1
    39    37    39   ar
    40     9    10    1
    41    11    10    1
    42    11    12    1
    43    12    13   am
    44    13    14    2
    45    13    15   am
    46    15    49    1
    47    49    50    1
    48    50    51   ar
    49    51    52   ar
    50    52    53   ar
    51    53    54   ar
    52    54    55   ar
    53    12     1    1
    54    55    50   ar
    55    11     5    1
    56    27    21   ar
    57    39    30   ar
    58    39    34   ar
    59    45    40   ar
    60    25    28    1
    61    15    16    1
