@<TRIPOS>MOLECULE
*****
 39 44 0 0 0
SMALL
GASTEIGER

@<TRIPOS>ATOM
      1 C          62.6558   86.3979   16.7373 C.2     1  UNL1        0.2252
      2 O          61.8676   86.5296   18.0067 O.2     1  UNL1       -0.2749
      3 N          63.2751   87.6114   16.1098 N.am    1  UNL1       -0.2794
      4 C          63.1062   88.9566   16.7516 C.3     1  UNL1        0.0953
      5 C          63.7255   90.1701   16.1240 C.3     1  UNL1        0.0442
      6 C          64.5138   90.0384   14.8545 C.3     1  UNL1        0.0933
      7 C          64.6826   88.6933   14.2128 C.3     1  UNL1        0.0442
      8 C          64.0633   87.4798   14.8404 C.3     1  UNL1        0.0953
      9 N          65.1331   91.2520   14.2270 N.ar    1  UNL1       -0.2817
     10 C          64.7993   91.8139   12.8768 C.ar    1  UNL1        0.3315
     11 O          63.7877   91.2610   11.9172 O.2     1  UNL1       -0.2463
     12 N          65.6549   93.0258   12.6548 N.ar    1  UNL1       -0.2799
     13 C          66.5173   93.2129   13.8677 C.ar    1  UNL1        0.0819
     14 C          67.5547   94.2399   14.2129 C.ar    1  UNL1        0.0484
     15 C          68.2695   94.1705   15.5298 C.ar    1  UNL1        0.1417
     16 F          69.3069   95.1976   15.8751 F       1  UNL1       -0.2041
     17 C          67.9470   93.0742   16.5014 C.ar    1  UNL1        0.0312
     18 C          66.9097   92.0472   16.1562 C.ar    1  UNL1        0.0211
     19 C          66.1949   92.1166   14.8394 C.ar    1  UNL1        0.0798
     20 C          65.6490   93.8976   11.4342 C.3     1  UNL1        0.1105
     21 C          66.7238   93.7458   10.3989 C.3     1  UNL1        0.0228
     22 C          67.5518   94.3266    9.2912 C.3     1  UNL1        0.0020
     23 C          67.7575   92.9021    9.7136 C.3     1  UNL1        0.0020
     24 N          63.1625   82.3624   14.8119 N.3     1  UNL1       -0.2689
     25 C          61.7956   82.9676   14.9367 C.3     1  UNL1        0.0729
     26 C          61.6267   84.3127   15.5785 C.3     1  UNL1        0.0264
     27 C          62.8247   85.0527   16.0955 C.3     1  UNL1        0.0795
     28 C          64.1915   84.4476   15.9707 C.3     1  UNL1        0.0264
     29 C          64.3604   83.1024   15.3289 C.3     1  UNL1        0.0729
     30 C          63.3314   81.0172   14.1700 C.3     1  UNL1        0.0993
     31 N          62.4404   78.1507    9.9287 N.pl3   1  UNL1       -0.3426
     32 C          62.8377   79.4541   10.5558 C.ar    1  UNL1        0.1251
     33 C          62.8859   79.5840   12.0494 C.ar    1  UNL1        0.0310
     34 C          63.2833   80.8874   12.6765 C.ar    1  UNL1       -0.0018
     35 C          63.6325   82.0609   11.8100 C.ar    1  UNL1        0.0179
     36 C          63.5843   81.9310   10.3164 C.ar    1  UNL1        0.1000
     37 N          63.1870   80.6276    9.6893 N.ar    1  UNL1       -0.2296
     38 H          62.2112   77.3804   10.4973 H       1  UNL1        0.1437
     39 H          62.4088   78.0655    8.9484 H       1  UNL1        0.1437
@<TRIPOS>BOND
     1    31    32    1
     2    32    33   ar
     3    33    34   ar
     4    34    30    1
     5    30    24    1
     6    24    25    1
     7    25    26    1
     8    26    27    1
     9    27     1    1
    10     1     2    2
    11     1     3   am
    12     3     4    1
    13     4     5    1
    14     5     6    1
    15     6     9    1
    16     9    10   ar
    17    10    11    2
    18    10    12   ar
    19    12    20    1
    20    20    21    1
    21    21    22    1
    22    22    23    1
    23    12    13   ar
    24    13    14   ar
    25    14    15   ar
    26    15    16    1
    27    15    17   ar
    28    17    18   ar
    29    18    19   ar
    30     6     7    1
    31     7     8    1
    32    27    28    1
    33    28    29    1
    34    34    35   ar
    35    35    36   ar
    36    36    37   ar
    37    37    32   ar
    38    29    24    1
    39     8     3    1
    40    19     9   ar
    41    23    21    1
    42    19    13   ar
    43    31    38    1
    44    31    39    1
@<TRIPOS>MOLECULE
*****
 39 44 0 0 0
SMALL
GASTEIGER

@<TRIPOS>ATOM
      1 C          58.4312   90.5248    5.9561 C.2     1  UNL1        0.2252
      2 O          56.9596   90.8148    5.9384 O.2     1  UNL1       -0.2749
      3 N          59.3240   91.1121    4.9035 N.am    1  UNL1       -0.2794
      4 C          58.7452   91.9894    3.8333 C.3     1  UNL1        0.0953
      5 C          59.6380   92.5768    2.7807 C.3     1  UNL1        0.0442
      6 C          61.1096   92.2868    2.7983 C.3     1  UNL1        0.0933
      7 C          61.6883   91.4095    3.8685 C.3     1  UNL1        0.0442
      8 C          60.7956   90.8221    4.9211 C.3     1  UNL1        0.0953
      9 N          62.0024   92.8741    1.7457 N.ar    1  UNL1       -0.2817
     10 C          63.4075   93.3575    1.9508 C.ar    1  UNL1        0.3315
     11 O          64.1665   93.3385    3.2444 O.2     1  UNL1       -0.2463
     12 N          63.9203   93.8633    0.6350 N.ar    1  UNL1       -0.2799
     13 C          62.8322   93.6925   -0.3832 C.ar    1  UNL1        0.0819
     14 C          62.7675   94.0147   -1.8467 C.ar    1  UNL1        0.0484
     15 C          61.5175   93.7256   -2.6238 C.ar    1  UNL1        0.1417
     16 F          61.4528   94.0478   -4.0874 F       1  UNL1       -0.2041
     17 C          60.3322   93.1142   -1.9374 C.ar    1  UNL1        0.0312
     18 C          60.3969   92.7920   -0.4738 C.ar    1  UNL1        0.0211
     19 C          61.6468   93.0812    0.3033 C.ar    1  UNL1        0.0798
     20 C          65.2822   94.4389    0.3819 C.3     1  UNL1        0.1105
     21 C          65.4259   95.7063   -0.4076 C.3     1  UNL1        0.0228
     22 C          66.2699   96.8506   -0.8851 C.3     1  UNL1        0.0020
     23 C          64.8308   96.7569   -1.2976 C.3     1  UNL1        0.0020
     24 N          60.1676   87.8928    9.1666 N.3     1  UNL1       -0.2689
     25 C          59.2547   87.3082    8.1298 C.3     1  UNL1        0.0729
     26 C          58.6759   88.1855    7.0596 C.3     1  UNL1        0.0264
     27 C          59.0100   89.6474    7.0263 C.3     1  UNL1        0.0795
     28 C          59.9228   90.2321    8.0630 C.3     1  UNL1        0.0264
     29 C          60.5016   89.3548    9.1332 C.3     1  UNL1        0.0729
     30 C          60.7464   87.0155   10.2368 C.3     1  UNL1        0.0993
     31 N          63.9773   83.2091   11.6763 N.pl3   1  UNL1       -0.3426
     32 C          63.3863   84.0752   10.6036 C.ar    1  UNL1        0.1251
     33 C          62.3618   85.1124   10.9566 C.ar    1  UNL1        0.0310
     34 C          61.7709   85.9784    9.8838 C.ar    1  UNL1       -0.0018
     35 C          62.2045   85.8072    8.4581 C.ar    1  UNL1        0.0179
     36 C          63.2290   84.7700    8.1051 C.ar    1  UNL1        0.1000
     37 N          63.8199   83.9040    9.1779 N.ar    1  UNL1       -0.2296
     38 H          63.6928   83.3214   12.6121 H       1  UNL1        0.1437
     39 H          64.6498   82.5284   11.4446 H       1  UNL1        0.1437
@<TRIPOS>BOND
     1    31    32    1
     2    32    33   ar
     3    33    34   ar
     4    34    30    1
     5    30    24    1
     6    24    25    1
     7    25    26    1
     8    26    27    1
     9    27     1    1
    10     1     2    2
    11     1     3   am
    12     3     4    1
    13     4     5    1
    14     5     6    1
    15     6     9    1
    16     9    10   ar
    17    10    11    2
    18    10    12   ar
    19    12    20    1
    20    20    21    1
    21    21    22    1
    22    22    23    1
    23    12    13   ar
    24    13    14   ar
    25    14    15   ar
    26    15    16    1
    27    15    17   ar
    28    17    18   ar
    29    18    19   ar
    30     6     7    1
    31     7     8    1
    32    27    28    1
    33    28    29    1
    34    34    35   ar
    35    35    36   ar
    36    36    37   ar
    37    37    32   ar
    38    29    24    1
    39     8     3    1
    40    19     9   ar
    41    23    21    1
    42    19    13   ar
    43    31    38    1
    44    31    39    1
@<TRIPOS>MOLECULE
*****
 39 44 0 0 0
SMALL
GASTEIGER

@<TRIPOS>ATOM
      1 C          58.6773   90.1573    6.3009 C.2     1  UNL1        0.2252
      2 O          57.2334   90.5025    6.5151 O.2     1  UNL1       -0.2749
      3 N          59.4470   90.8078    5.1898 N.am    1  UNL1       -0.2794
      4 C          58.7728   91.8034    4.2930 C.3     1  UNL1        0.0953
      5 C          59.5424   92.4538    3.1819 C.3     1  UNL1        0.0442
      6 C          60.9865   92.1087    2.9676 C.3     1  UNL1        0.0933
      7 C          61.6606   91.1132    3.8644 C.3     1  UNL1        0.0442
      8 C          60.8910   90.4627    4.9755 C.3     1  UNL1        0.0953
      9 N          61.7561   92.7592    1.8565 N.ar    1  UNL1       -0.2817
     10 C          63.1480   93.3099    1.9529 C.ar    1  UNL1        0.3315
     11 O          64.0147   93.3069    3.1772 O.2     1  UNL1       -0.2463
     12 N          63.5211   93.8642    0.6099 N.ar    1  UNL1       -0.2799
     13 C          62.3598   93.6560   -0.3164 C.ar    1  UNL1        0.0819
     14 C          62.1548   94.0001   -1.7619 C.ar    1  UNL1        0.0484
     15 C          60.8589   93.6612   -2.4369 C.ar    1  UNL1        0.1417
     16 F          60.6537   94.0053   -3.8825 F       1  UNL1       -0.2041
     17 C          59.7680   92.9783   -1.6665 C.ar    1  UNL1        0.0312
     18 C          59.9731   92.6342   -0.2210 C.ar    1  UNL1        0.0211
     19 C          61.2690   92.9731    0.4540 C.ar    1  UNL1        0.0798
     20 C          64.8264   94.5128    0.2555 C.3     1  UNL1        0.1105
     21 C          64.8931   95.4940   -0.8773 C.3     1  UNL1        0.0228
     22 C          65.3089   95.8352   -2.2775 C.3     1  UNL1        0.0020
     23 C          64.5930   96.8521   -1.4389 C.3     1  UNL1        0.0020
     24 N          60.7001   87.1707    8.9912 N.3     1  UNL1       -0.2689
     25 C          60.7522   88.6331    9.3210 C.3     1  UNL1        0.0729
     26 C          60.0779   89.6287    8.4242 C.3     1  UNL1        0.0264
     27 C          59.3516   89.1618    7.1976 C.3     1  UNL1        0.0795
     28 C          59.2995   87.6994    6.8678 C.3     1  UNL1        0.0264
     29 C          59.9738   86.7039    7.7646 C.3     1  UNL1        0.0729
     30 C          61.3744   86.1751    9.8880 C.3     1  UNL1        0.0993
     31 N          63.5361   90.0449   12.5995 N.pl3   1  UNL1       -0.3426
     32 C          63.2531   88.5824   12.4227 C.ar    1  UNL1        0.1251
     33 C          62.4552   88.1100   11.2437 C.ar    1  UNL1        0.0310
     34 C          62.1723   86.6475   11.0670 C.ar    1  UNL1       -0.0018
     35 C          62.6872   85.6575   12.0694 C.ar    1  UNL1        0.0179
     36 C          63.4851   86.1300   13.2484 C.ar    1  UNL1        0.1000
     37 N          63.7681   87.5924   13.4251 N.ar    1  UNL1       -0.2296
     38 H          63.1981   90.6947   11.9416 H       1  UNL1        0.1437
     39 H          64.0598   90.3549   13.3734 H       1  UNL1        0.1437
@<TRIPOS>BOND
     1    31    32    1
     2    32    33   ar
     3    33    34   ar
     4    34    30    1
     5    30    24    1
     6    24    25    1
     7    25    26    1
     8    26    27    1
     9    27     1    1
    10     1     2    2
    11     1     3   am
    12     3     4    1
    13     4     5    1
    14     5     6    1
    15     6     9    1
    16     9    10   ar
    17    10    11    2
    18    10    12   ar
    19    12    20    1
    20    20    21    1
    21    21    22    1
    22    22    23    1
    23    12    13   ar
    24    13    14   ar
    25    14    15   ar
    26    15    16    1
    27    15    17   ar
    28    17    18   ar
    29    18    19   ar
    30     6     7    1
    31     7     8    1
    32    27    28    1
    33    28    29    1
    34    34    35   ar
    35    35    36   ar
    36    36    37   ar
    37    37    32   ar
    38    29    24    1
    39     8     3    1
    40    19     9   ar
    41    23    21    1
    42    19    13   ar
    43    31    38    1
    44    31    39    1
@<TRIPOS>MOLECULE
*****
 39 44 0 0 0
SMALL
GASTEIGER

@<TRIPOS>ATOM
      1 C          62.5605   86.5394   16.6973 C.2     1  UNL1        0.2252
      2 O          61.6468   86.6443   17.8822 O.2     1  UNL1       -0.2749
      3 N          63.2389   87.7658   16.1626 N.am    1  UNL1       -0.2794
      4 C          63.0036   89.0969   16.8129 C.3     1  UNL1        0.0953
      5 C          63.6820   90.3232   16.2782 C.3     1  UNL1        0.0442
      6 C          64.5958   90.2184   15.0932 C.3     1  UNL1        0.0933
      7 C          64.8311   88.8874   14.4430 C.3     1  UNL1        0.0442
      8 C          64.1526   87.6610   14.9777 C.3     1  UNL1        0.0953
      9 N          65.2742   91.4448   14.5585 N.ar    1  UNL1       -0.2817
     10 C          66.1306   92.3923   15.3450 C.ar    1  UNL1        0.3315
     11 O          66.4591   92.2799   16.8043 O.2     1  UNL1       -0.2463
     12 N          66.6010   93.4720   14.4160 N.ar    1  UNL1       -0.2799
     13 C          66.0352   93.1917   13.0554 C.ar    1  UNL1        0.0819
     14 C          66.1607   93.9155   11.7476 C.ar    1  UNL1        0.0484
     15 C          65.4663   93.3864   10.5279 C.ar    1  UNL1        0.1417
     16 F          65.5918   94.1102    9.2201 F       1  UNL1       -0.2041
     17 C          64.6462   92.1335   10.6160 C.ar    1  UNL1        0.0312
     18 C          64.5207   91.4097   11.9238 C.ar    1  UNL1        0.0211
     19 C          65.2152   91.9388   13.1435 C.ar    1  UNL1        0.0798
     20 C          67.4824   94.6289   14.7832 C.3     1  UNL1        0.1105
     21 C          68.7243   94.3984   15.5923 C.3     1  UNL1        0.0228
     22 C          69.8354   94.9319   16.4472 C.3     1  UNL1        0.0020
     23 C          69.7642   93.4656   16.1389 C.3     1  UNL1        0.0020
     24 N          63.2665   82.5462   14.7466 N.3     1  UNL1       -0.2689
     25 C          61.8720   83.0853   14.8686 C.3     1  UNL1        0.0729
     26 C          61.6366   84.4163   15.5188 C.3     1  UNL1        0.0264
     27 C          62.7958   85.2084   16.0471 C.3     1  UNL1        0.0795
     28 C          64.1903   84.6694   15.9251 C.3     1  UNL1        0.0264
     29 C          64.4257   83.3383   15.2748 C.3     1  UNL1        0.0729
     30 C          63.5019   81.2151   14.0963 C.3     1  UNL1        0.0993
     31 N          62.4437   78.3977    9.8605 N.pl3   1  UNL1       -0.3426
     32 C          62.9095   79.6794   10.4852 C.ar    1  UNL1        0.1251
     33 C          62.9728   79.8065   11.9785 C.ar    1  UNL1        0.0310
     34 C          63.4387   81.0882   12.6031 C.ar    1  UNL1       -0.0018
     35 C          63.8413   82.2429   11.7344 C.ar    1  UNL1        0.0179
     36 C          63.7780   82.1159   10.2412 C.ar    1  UNL1        0.1000
     37 N          63.3121   80.8341    9.6166 N.ar    1  UNL1       -0.2296
     38 H          62.1794   77.6398   10.4306 H       1  UNL1        0.1437
     39 H          62.4022   78.3144    8.8804 H       1  UNL1        0.1437
@<TRIPOS>BOND
     1    31    32    1
     2    32    33   ar
     3    33    34   ar
     4    34    30    1
     5    30    24    1
     6    24    25    1
     7    25    26    1
     8    26    27    1
     9    27     1    1
    10     1     2    2
    11     1     3   am
    12     3     4    1
    13     4     5    1
    14     5     6    1
    15     6     9    1
    16     9    10   ar
    17    10    11    2
    18    10    12   ar
    19    12    20    1
    20    20    21    1
    21    21    22    1
    22    22    23    1
    23    12    13   ar
    24    13    14   ar
    25    14    15   ar
    26    15    16    1
    27    15    17   ar
    28    17    18   ar
    29    18    19   ar
    30     6     7    1
    31     7     8    1
    32    27    28    1
    33    28    29    1
    34    34    35   ar
    35    35    36   ar
    36    36    37   ar
    37    37    32   ar
    38    29    24    1
    39     8     3    1
    40    19     9   ar
    41    23    21    1
    42    19    13   ar
    43    31    38    1
    44    31    39    1
@<TRIPOS>MOLECULE
*****
 39 44 0 0 0
SMALL
GASTEIGER

@<TRIPOS>ATOM
      1 C          58.6353   90.3579    6.0785 C.2     1  UNL1        0.2252
      2 O          57.1748   90.6072    6.3122 O.2     1  UNL1       -0.2749
      3 N          59.3348   91.0212    4.9292 N.am    1  UNL1       -0.2794
      4 C          58.5737   91.9338    4.0138 C.3     1  UNL1        0.0953
      5 C          59.2732   92.5972    2.8646 C.3     1  UNL1        0.0442
      6 C          60.7338   92.3479    2.6307 C.3     1  UNL1        0.0933
      7 C          61.4948   91.4353    3.5461 C.3     1  UNL1        0.0442
      8 C          60.7953   90.7720    4.6954 C.3     1  UNL1        0.0953
      9 N          61.4332   93.0112    1.4815 N.ar    1  UNL1       -0.2817
     10 C          61.0120   92.9567    0.0429 C.ar    1  UNL1        0.3315
     11 O          59.8174   92.2294   -0.4991 O.2     1  UNL1       -0.2463
     12 N          61.9952   93.7574   -0.7586 N.ar    1  UNL1       -0.2799
     13 C          63.0241   94.3067    0.1847 C.ar    1  UNL1        0.0819
     14 C          64.2323   95.1671   -0.0382 C.ar    1  UNL1        0.0484
     15 C          65.0932   95.5665    1.1234 C.ar    1  UNL1        0.1417
     16 F          66.3015   96.4270    0.9006 F       1  UNL1       -0.2041
     17 C          64.7459   95.1054    2.5079 C.ar    1  UNL1        0.0312
     18 C          63.5376   94.2449    2.7307 C.ar    1  UNL1        0.0211
     19 C          62.6767   93.8455    1.5692 C.ar    1  UNL1        0.0798
     20 C          61.9564   93.9712   -2.2427 C.3     1  UNL1        0.1105
     21 C          62.9943   93.3354   -3.1195 C.3     1  UNL1        0.0228
     22 C          64.1449   92.3889   -3.2937 C.3     1  UNL1        0.0020
     23 C          63.6415   93.1809   -4.4639 C.3     1  UNL1        0.0020
     24 N          60.9185   87.6202    8.8246 N.3     1  UNL1       -0.2689
     25 C          60.1600   87.0534    7.6612 C.3     1  UNL1        0.0729
     26 C          59.3990   87.9660    6.7458 C.3     1  UNL1        0.0264
     27 C          59.3964   89.4453    6.9939 C.3     1  UNL1        0.0795
     28 C          60.1548   90.0121    8.1573 C.3     1  UNL1        0.0264
     29 C          60.9159   89.0995    9.0726 C.3     1  UNL1        0.0729
     30 C          61.6796   86.7076    9.7400 C.3     1  UNL1        0.0993
     31 N          63.9764   85.9511   14.3392 N.pl3   1  UNL1       -0.3426
     32 C          63.4923   86.8808   13.2661 C.ar    1  UNL1        0.1251
     33 C          62.8280   86.3294   12.0396 C.ar    1  UNL1        0.0310
     34 C          62.3439   87.2591   10.9666 C.ar    1  UNL1       -0.0018
     35 C          62.5243   88.7403   11.1201 C.ar    1  UNL1        0.0179
     36 C          63.1886   89.2917   12.3467 C.ar    1  UNL1        0.1000
     37 N          63.6727   88.3620   13.4197 N.ar    1  UNL1       -0.2296
     38 H          63.8581   84.9790   14.2384 H       1  UNL1        0.1437
     39 H          64.4125   86.3131   15.1442 H       1  UNL1        0.1437
@<TRIPOS>BOND
     1    31    32    1
     2    32    33   ar
     3    33    34   ar
     4    34    30    1
     5    30    24    1
     6    24    25    1
     7    25    26    1
     8    26    27    1
     9    27     1    1
    10     1     2    2
    11     1     3   am
    12     3     4    1
    13     4     5    1
    14     5     6    1
    15     6     9    1
    16     9    10   ar
    17    10    11    2
    18    10    12   ar
    19    12    20    1
    20    20    21    1
    21    21    22    1
    22    22    23    1
    23    12    13   ar
    24    13    14   ar
    25    14    15   ar
    26    15    16    1
    27    15    17   ar
    28    17    18   ar
    29    18    19   ar
    30     6     7    1
    31     7     8    1
    32    27    28    1
    33    28    29    1
    34    34    35   ar
    35    35    36   ar
    36    36    37   ar
    37    37    32   ar
    38    29    24    1
    39     8     3    1
    40    19     9   ar
    41    23    21    1
    42    19    13   ar
    43    31    38    1
    44    31    39    1
@<TRIPOS>MOLECULE
*****
 39 44 0 0 0
SMALL
GASTEIGER

@<TRIPOS>ATOM
      1 C          58.5476   90.6341    5.8668 C.2     1  UNL1        0.2252
      2 O          57.0633   90.8500    5.8551 O.2     1  UNL1       -0.2749
      3 N          59.4007   91.2303    4.7867 N.am    1  UNL1       -0.2794
      4 C          58.7695   92.0424    3.6949 C.3     1  UNL1        0.0953
      5 C          59.6226   92.6387    2.6147 C.3     1  UNL1        0.0442
      6 C          61.1071   92.4228    2.6264 C.3     1  UNL1        0.0933
      7 C          61.7382   91.6107    3.7182 C.3     1  UNL1        0.0442
      8 C          60.8851   91.0144    4.7983 C.3     1  UNL1        0.0953
      9 N          61.9602   93.0190    1.5462 N.ar    1  UNL1       -0.2817
     10 C          61.8364   92.7502    0.0757 C.ar    1  UNL1        0.3315
     11 O          60.8378   91.8380   -0.5729 O.2     1  UNL1       -0.2463
     12 N          62.8866   93.5538   -0.6323 N.ar    1  UNL1       -0.2799
     13 C          63.6594   94.3193    0.4006 C.ar    1  UNL1        0.0819
     14 C          64.8104   95.2745    0.2890 C.ar    1  UNL1        0.0484
     15 C          65.3889   95.8993    1.5239 C.ar    1  UNL1        0.1417
     16 F          66.5401   96.8546    1.4124 F       1  UNL1       -0.2041
     17 C          64.8164   95.5687    2.8704 C.ar    1  UNL1        0.0312
     18 C          63.6653   94.6135    2.9819 C.ar    1  UNL1        0.0211
     19 C          63.0868   93.9887    1.7470 C.ar    1  UNL1        0.0798
     20 C          63.1226   93.5863   -2.1133 C.3     1  UNL1        0.1105
     21 C          63.4292   94.8866   -2.7956 C.3     1  UNL1        0.0228
     22 C          63.7195   96.3563   -2.7203 C.3     1  UNL1        0.0020
     23 C          63.6700   95.6689   -4.0526 C.3     1  UNL1        0.0020
     24 N          60.4413   88.1978    9.1422 N.3     1  UNL1       -0.2689
     25 C          59.5547   87.5339    8.1305 C.3     1  UNL1        0.0729
     26 C          58.9235   88.3460    7.0387 C.3     1  UNL1        0.0264
     27 C          59.1788   89.8220    6.9586 C.3     1  UNL1        0.0795
     28 C          60.0653   90.4858    7.9702 C.3     1  UNL1        0.0264
     29 C          60.6966   89.6737    9.0620 C.3     1  UNL1        0.0729
     30 C          61.0725   87.3856   10.2340 C.3     1  UNL1        0.0993
     31 N          63.6210   83.0970   11.6875 N.pl3   1  UNL1       -0.3426
     32 C          63.2085   84.0629   10.6165 C.ar    1  UNL1        0.1251
     33 C          62.3467   85.2414   10.9607 C.ar    1  UNL1        0.0310
     34 C          61.9342   86.2072    9.8897 C.ar    1  UNL1       -0.0018
     35 C          62.3835   85.9945    8.4745 C.ar    1  UNL1        0.0179
     36 C          63.2452   84.8160    8.1302 C.ar    1  UNL1        0.1000
     37 N          63.6577   83.8502    9.2013 N.ar    1  UNL1       -0.2296
     38 H          63.3262   83.2366   12.6164 H       1  UNL1        0.1437
     39 H          64.1867   82.3236   11.4615 H       1  UNL1        0.1437
@<TRIPOS>BOND
     1    31    32    1
     2    32    33   ar
     3    33    34   ar
     4    34    30    1
     5    30    24    1
     6    24    25    1
     7    25    26    1
     8    26    27    1
     9    27     1    1
    10     1     2    2
    11     1     3   am
    12     3     4    1
    13     4     5    1
    14     5     6    1
    15     6     9    1
    16     9    10   ar
    17    10    11    2
    18    10    12   ar
    19    12    20    1
    20    20    21    1
    21    21    22    1
    22    22    23    1
    23    12    13   ar
    24    13    14   ar
    25    14    15   ar
    26    15    16    1
    27    15    17   ar
    28    17    18   ar
    29    18    19   ar
    30     6     7    1
    31     7     8    1
    32    27    28    1
    33    28    29    1
    34    34    35   ar
    35    35    36   ar
    36    36    37   ar
    37    37    32   ar
    38    29    24    1
    39     8     3    1
    40    19     9   ar
    41    23    21    1
    42    19    13   ar
    43    31    38    1
    44    31    39    1
