@<TRIPOS>MOLECULE
*****
 33 36 0 0 0
SMALL
GASTEIGER

@<TRIPOS>ATOM
      1 C          61.4957   88.4285    9.6325 C.ar    1  UNL1        0.1330
      2 C          62.5948   89.4490    9.6081 C.ar    1  UNL1        0.0685
      3 C          62.3935   90.7839   10.2622 C.ar    1  UNL1        0.1368
      4 N          61.0931   91.0982   10.9406 N.ar    1  UNL1       -0.2088
      5 C          59.9940   90.0777   10.9649 C.ar    1  UNL1        0.2012
      6 N          60.1952   88.7429   10.3110 N.ar    1  UNL1       -0.2091
      7 N          61.6969   87.0937    8.9785 N.pl3   1  UNL1       -0.3196
      8 H          61.5083   86.9824    8.0187 H       1  UNL1        0.1481
      9 C          62.8638   82.2924   14.5640 C.3     1  UNL1        0.0296
     10 C          63.5248   82.0517   13.2392 C.3     1  UNL1        0.0930
     11 C          64.0921   80.8413   13.9196 C.3     1  UNL1        0.0296
     12 C          62.8192   83.3125   12.8358 C.3     1  UNL1        0.0296
     13 C          63.1626   83.5981   11.4038 C.3     1  UNL1        0.0298
     14 C          62.2433   84.6082   12.0238 C.3     1  UNL1        0.0042
     15 C          61.7547   85.7734   11.2154 C.3     1  UNL1        0.0196
     16 C          62.1855   85.9285    9.7870 C.3     1  UNL1        0.0704
     17 C          63.1049   84.9184    9.1670 C.3     1  UNL1        0.0196
     18 C          63.5934   83.7532    9.9754 C.3     1  UNL1        0.0042
     19 C          64.0805   82.5138   10.9222 C.3     1  UNL1        0.1419
     20 O          64.3043   81.5581   12.0565 O.3     1  UNL1       -0.3585
     21 N          63.4926   91.8043   10.2378 N.pl3   1  UNL1       -0.2961
     22 H          63.5868   92.4080    9.4658 H       1  UNL1        0.1537
     23 C          64.4482   91.9050   11.3897 C.ar    1  UNL1        0.0773
     24 C          64.1536   91.1875   12.6735 C.ar    1  UNL1        0.0182
     25 C          65.1092   91.2882   13.8254 C.ar    1  UNL1        0.0198
     26 C          66.3594   92.1065   13.6933 C.ar    1  UNL1        0.1080
     27 C          66.6540   92.8240   12.4094 C.ar    1  UNL1        0.0492
     28 C          65.6984   92.7233   11.2576 C.ar    1  UNL1        0.1547
     29 F          65.9930   93.4408    9.9736 F       1  UNL1       -0.2028
     30 S          67.3150   92.2072   14.8451 S.O2    1  UNL1        0.0105
     31 C          68.2706   92.3079   15.9969 C.3     1  UNL1        0.1816
     32 O          66.1588   92.2888   15.7972 O.2     1  UNL1       -0.1686
     33 O          68.4712   92.1256   13.8930 O.2     1  UNL1       -0.1686
@<TRIPOS>BOND
     1     9    10    1
     2    10    11    1
     3    10    12    1
     4    13    12    1
     5    13    14    1
     6    14    15    1
     7    15    16    1
     8    16     7    1
     9     7     1    1
    10     1     2   ar
    11     2     3   ar
    12     3    21    1
    13    21    23    1
    14    23    24   ar
    15    24    25   ar
    16    25    26   ar
    17    26    30    1
    18    30    31    1
    19    30    32    2
    20    30    33    2
    21    26    27   ar
    22    27    28   ar
    23    28    29    1
    24     3     4   ar
    25     4     5   ar
    26     5     6   ar
    27    16    17    1
    28    17    18    1
    29    13    19    1
    30    19    20    1
    31    20    10    1
    32    18    13    1
    33     6     1   ar
    34    28    23   ar
    35     7     8    1
    36    21    22    1
@<TRIPOS>MOLECULE
*****
 33 36 0 0 0
SMALL
GASTEIGER

@<TRIPOS>ATOM
      1 C          60.5162   88.7394    8.9305 C.ar    1  UNL1        0.1330
      2 C          61.5717   87.6978    9.1556 C.ar    1  UNL1        0.0685
      3 C          61.3993   86.3203    8.5873 C.ar    1  UNL1        0.1368
      4 N          60.1713   85.9845    7.7940 N.ar    1  UNL1       -0.2088
      5 C          59.1157   87.0262    7.5690 C.ar    1  UNL1        0.2012
      6 N          59.2881   88.4036    8.1372 N.ar    1  UNL1       -0.2091
      7 N          60.6886   90.1169    9.4988 N.pl3   1  UNL1       -0.3196
      8 H          60.1105   90.8521    9.1913 H       1  UNL1        0.1481
      9 C          66.8323   92.5483   12.9562 C.3     1  UNL1        0.0296
     10 C          65.8560   91.6940   13.7091 C.3     1  UNL1        0.0930
     11 C          66.8224   91.8643   14.8435 C.3     1  UNL1        0.0296
     12 C          65.0936   91.7023   12.4172 C.3     1  UNL1        0.0296
     13 C          63.8480   90.8887   12.6087 C.3     1  UNL1        0.0298
     14 C          63.9921   91.4691   11.2331 C.3     1  UNL1        0.0042
     15 C          62.9390   91.2118   10.1965 C.3     1  UNL1        0.0196
     16 C          61.7417   90.3742   10.5355 C.3     1  UNL1        0.0704
     17 C          61.5976   89.7938   11.9111 C.3     1  UNL1        0.0196
     18 C          62.6508   90.0511   12.9477 C.3     1  UNL1        0.0042
     19 C          63.8406   90.3776   14.0190 C.3     1  UNL1        0.1419
     20 O          65.0815   90.8753   14.6990 O.3     1  UNL1       -0.3585
     21 N          62.4549   85.2786    8.8123 N.pl3   1  UNL1       -0.2961
     22 H          62.9155   84.8705    8.0438 H       1  UNL1        0.1537
     23 C          62.8087   84.8587   10.2083 C.ar    1  UNL1        0.0773
     24 C          62.2003   85.5678   11.3817 C.ar    1  UNL1        0.0182
     25 C          62.5541   85.1479   12.7776 C.ar    1  UNL1        0.0198
     26 C          63.5163   84.0189   13.0001 C.ar    1  UNL1        0.1080
     27 C          64.1248   83.3098   11.8265 C.ar    1  UNL1        0.0492
     28 C          63.7710   83.7297   10.4307 C.ar    1  UNL1        0.1547
     29 F          64.3794   83.0206    9.2572 F       1  UNL1       -0.2028
     30 S          63.8702   83.5990   14.3959 S.O2    1  UNL1        0.0105
     31 C          64.2240   83.1791   15.7918 C.3     1  UNL1        0.1816
     32 O          62.5802   82.8400   14.4945 O.2     1  UNL1       -0.1686
     33 O          65.1601   84.3581   14.2973 O.2     1  UNL1       -0.1686
@<TRIPOS>BOND
     1     9    10    1
     2    10    11    1
     3    10    12    1
     4    13    12    1
     5    13    14    1
     6    14    15    1
     7    15    16    1
     8    16     7    1
     9     7     1    1
    10     1     2   ar
    11     2     3   ar
    12     3    21    1
    13    21    23    1
    14    23    24   ar
    15    24    25   ar
    16    25    26   ar
    17    26    30    1
    18    30    31    1
    19    30    32    2
    20    30    33    2
    21    26    27   ar
    22    27    28   ar
    23    28    29    1
    24     3     4   ar
    25     4     5   ar
    26     5     6   ar
    27    16    17    1
    28    17    18    1
    29    13    19    1
    30    19    20    1
    31    20    10    1
    32    18    13    1
    33     6     1   ar
    34    28    23   ar
    35     7     8    1
    36    21    22    1
@<TRIPOS>MOLECULE
*****
 33 36 0 0 0
SMALL
GASTEIGER

@<TRIPOS>ATOM
      1 C          61.4028   89.5595   11.7873 C.ar    1  UNL1        0.1330
      2 C          61.9732   88.3058   11.1934 C.ar    1  UNL1        0.0685
      3 C          61.5907   87.8931    9.8028 C.ar    1  UNL1        0.1368
      4 N          60.6379   88.7343    9.0063 N.ar    1  UNL1       -0.2088
      5 C          60.0674   89.9880    9.6002 C.ar    1  UNL1        0.2012
      6 N          60.4499   90.4006   10.9907 N.ar    1  UNL1       -0.2091
      7 N          61.7852   89.9721   13.1777 N.pl3   1  UNL1       -0.3196
      8 H          61.1551   89.8374   13.9221 H       1  UNL1        0.1481
      9 C          68.0730   92.2157   16.5007 C.3     1  UNL1        0.0296
     10 C          67.8501   92.5436   15.0541 C.3     1  UNL1        0.0930
     11 C          69.1913   93.2069   15.1603 C.3     1  UNL1        0.0296
     12 C          66.5555   91.8117   15.2503 C.3     1  UNL1        0.0296
     13 C          65.8128   91.8259   13.9472 C.3     1  UNL1        0.0298
     14 C          65.0919   91.1130   15.0525 C.3     1  UNL1        0.0042
     15 C          63.7494   90.4950   14.7960 C.3     1  UNL1        0.0196
     16 C          63.1278   90.5901   13.4342 C.3     1  UNL1        0.0704
     17 C          63.8487   91.3031   12.3288 C.3     1  UNL1        0.0196
     18 C          65.1912   91.9210   12.5853 C.3     1  UNL1        0.0042
     19 C          66.6484   92.5666   12.9455 C.3     1  UNL1        0.1419
     20 O          67.9075   93.0101   13.6296 O.3     1  UNL1       -0.3585
     21 N          62.1611   86.6394    9.2089 N.pl3   1  UNL1       -0.2961
     22 H          62.3060   86.5767    8.2371 H       1  UNL1        0.1537
     23 C          62.5109   85.4812   10.0956 C.ar    1  UNL1        0.0773
     24 C          62.1409   85.5107   11.5490 C.ar    1  UNL1        0.0182
     25 C          62.4906   84.3525   12.4357 C.ar    1  UNL1        0.0198
     26 C          63.2103   83.1647   11.8690 C.ar    1  UNL1        0.1080
     27 C          63.5803   83.1351   10.4156 C.ar    1  UNL1        0.0492
     28 C          63.2306   84.2934    9.5290 C.ar    1  UNL1        0.1547
     29 F          63.6006   84.2638    8.0756 F       1  UNL1       -0.2028
     30 S          63.5601   82.0065   12.7557 S.O2    1  UNL1        0.0105
     31 C          63.9098   80.8483   13.6423 C.3     1  UNL1        0.1816
     32 O          64.3126   82.9308   13.6663 O.2     1  UNL1       -0.1686
     33 O          62.8075   81.0822   11.8451 O.2     1  UNL1       -0.1686
@<TRIPOS>BOND
     1     9    10    1
     2    10    11    1
     3    10    12    1
     4    13    12    1
     5    13    14    1
     6    14    15    1
     7    15    16    1
     8    16     7    1
     9     7     1    1
    10     1     2   ar
    11     2     3   ar
    12     3    21    1
    13    21    23    1
    14    23    24   ar
    15    24    25   ar
    16    25    26   ar
    17    26    30    1
    18    30    31    1
    19    30    32    2
    20    30    33    2
    21    26    27   ar
    22    27    28   ar
    23    28    29    1
    24     3     4   ar
    25     4     5   ar
    26     5     6   ar
    27    16    17    1
    28    17    18    1
    29    13    19    1
    30    19    20    1
    31    20    10    1
    32    18    13    1
    33     6     1   ar
    34    28    23   ar
    35     7     8    1
    36    21    22    1
@<TRIPOS>MOLECULE
*****
 33 36 0 0 0
SMALL
GASTEIGER

@<TRIPOS>ATOM
      1 C          60.9973   88.9851    9.6281 C.ar    1  UNL1        0.1330
      2 C          62.1664   88.0523    9.7423 C.ar    1  UNL1        0.0685
      3 C          62.0612   86.6503    9.2194 C.ar    1  UNL1        0.1368
      4 N          60.7869   86.1811    8.5824 N.ar    1  UNL1       -0.2088
      5 C          59.6177   87.1138    8.4682 C.ar    1  UNL1        0.2012
      6 N          59.7229   88.5158    8.9910 N.ar    1  UNL1       -0.2091
      7 N          61.1024   90.3870   10.1509 N.pl3   1  UNL1       -0.3196
      8 H          60.3447   91.0076   10.0513 H       1  UNL1        0.1481
      9 C          66.4068   91.6175   15.2461 C.3     1  UNL1        0.0296
     10 C          66.5915   92.1420   13.8530 C.3     1  UNL1        0.0930
     11 C          67.8919   92.6621   14.3900 C.3     1  UNL1        0.0296
     12 C          65.2524   91.5123   13.6073 C.3     1  UNL1        0.0296
     13 C          64.8813   91.7563   12.1745 C.3     1  UNL1        0.0298
     14 C          63.8562   90.9797   12.9465 C.3     1  UNL1        0.0042
     15 C          62.5966   90.5233   12.2720 C.3     1  UNL1        0.0196
     16 C          62.3621   90.8435   10.8254 C.3     1  UNL1        0.0704
     17 C          63.3872   91.6200   10.0534 C.3     1  UNL1        0.0196
     18 C          64.6468   92.0764   10.7280 C.3     1  UNL1        0.0042
     19 C          65.9911   92.5368   11.5348 C.3     1  UNL1        0.1419
     20 O          67.0480   92.7753   12.5721 O.3     1  UNL1       -0.3585
     21 N          63.2304   85.7176    9.3336 N.pl3   1  UNL1       -0.2961
     22 H          64.0358   85.8687    8.7879 H       1  UNL1        0.1537
     23 C          63.1725   84.5546   10.2793 C.ar    1  UNL1        0.0773
     24 C          63.5965   83.1916    9.8187 C.ar    1  UNL1        0.0182
     25 C          63.5386   82.0286   10.7643 C.ar    1  UNL1        0.0198
     26 C          63.0566   82.2288   12.1706 C.ar    1  UNL1        0.1080
     27 C          62.6325   83.5919   12.6312 C.ar    1  UNL1        0.0492
     28 C          62.6905   84.7548   11.6856 C.ar    1  UNL1        0.1547
     29 F          62.2664   86.1179   12.1462 F       1  UNL1       -0.2028
     30 S          62.9986   81.0659   13.1163 S.O2    1  UNL1        0.0105
     31 C          62.9407   79.9030   14.0619 C.3     1  UNL1        0.1816
     32 O          63.2601   81.9899   14.2686 O.2     1  UNL1       -0.1686
     33 O          62.7372   80.1419   11.9640 O.2     1  UNL1       -0.1686
@<TRIPOS>BOND
     1     9    10    1
     2    10    11    1
     3    10    12    1
     4    13    12    1
     5    13    14    1
     6    14    15    1
     7    15    16    1
     8    16     7    1
     9     7     1    1
    10     1     2   ar
    11     2     3   ar
    12     3    21    1
    13    21    23    1
    14    23    24   ar
    15    24    25   ar
    16    25    26   ar
    17    26    30    1
    18    30    31    1
    19    30    32    2
    20    30    33    2
    21    26    27   ar
    22    27    28   ar
    23    28    29    1
    24     3     4   ar
    25     4     5   ar
    26     5     6   ar
    27    16    17    1
    28    17    18    1
    29    13    19    1
    30    19    20    1
    31    20    10    1
    32    18    13    1
    33     6     1   ar
    34    28    23   ar
    35     7     8    1
    36    21    22    1
@<TRIPOS>MOLECULE
*****
 33 36 0 0 0
SMALL
GASTEIGER

@<TRIPOS>ATOM
      1 C          63.5217   88.6649   16.1237 C.ar    1  UNL1        0.1330
      2 C          63.7206   88.7453   14.6392 C.ar    1  UNL1        0.0685
      3 C          63.8095   90.0828   13.9658 C.ar    1  UNL1        0.1368
      4 N          63.6995   91.3397   14.7769 N.ar    1  UNL1       -0.2088
      5 C          63.5006   91.2592   16.2615 C.ar    1  UNL1        0.2012
      6 N          63.4117   89.9219   16.9349 N.ar    1  UNL1       -0.2091
      7 N          63.4328   87.3275   16.7972 N.pl3   1  UNL1       -0.3196
      8 H          63.4015   87.2722   17.7796 H       1  UNL1        0.1481
      9 C          61.3623   80.7732   13.9047 C.3     1  UNL1        0.0296
     10 C          62.6117   81.4347   13.4035 C.3     1  UNL1        0.0930
     11 C          62.7034   80.2314   12.5127 C.3     1  UNL1        0.0296
     12 C          62.2588   82.4999   14.3991 C.3     1  UNL1        0.0296
     13 C          63.3093   83.5682   14.3269 C.3     1  UNL1        0.0298
     14 C          62.2313   83.8396   15.3339 C.3     1  UNL1        0.0042
     15 C          62.2725   85.0927   16.1573 C.3     1  UNL1        0.0196
     16 C          63.3917   86.0744   15.9737 C.3     1  UNL1        0.0704
     17 C          64.4697   85.8029   14.9667 C.3     1  UNL1        0.0196
     18 C          64.4285   84.5499   14.1433 C.3     1  UNL1        0.0042
     19 C          64.3115   83.1633   13.2867 C.3     1  UNL1        0.1419
     20 O          63.8803   81.8448   12.7160 O.3     1  UNL1       -0.3585
     21 N          64.0084   90.1632   12.4812 N.pl3   1  UNL1       -0.2961
     22 H          64.7753   90.6591   12.1134 H       1  UNL1        0.1537
     23 C          63.0387   89.4881   11.5569 C.ar    1  UNL1        0.0773
     24 C          62.6884   88.0442   11.7620 C.ar    1  UNL1        0.0182
     25 C          61.7187   87.3691   10.8377 C.ar    1  UNL1        0.0198
     26 C          61.0996   88.1380    9.7084 C.ar    1  UNL1        0.1080
     27 C          61.4500   89.5821    9.5034 C.ar    1  UNL1        0.0492
     28 C          62.4196   90.2571   10.4276 C.ar    1  UNL1        0.1547
     29 F          62.7700   91.7012   10.2226 F       1  UNL1       -0.2028
     30 S          60.1300   87.4630    8.7842 S.O2    1  UNL1        0.0105
     31 C          59.1604   86.7880    7.8599 C.3     1  UNL1        0.1816
     32 O          60.5930   86.1239    9.2765 O.2     1  UNL1       -0.1686
     33 O          59.6671   88.8021    8.2918 O.2     1  UNL1       -0.1686
@<TRIPOS>BOND
     1     9    10    1
     2    10    11    1
     3    10    12    1
     4    13    12    1
     5    13    14    1
     6    14    15    1
     7    15    16    1
     8    16     7    1
     9     7     1    1
    10     1     2   ar
    11     2     3   ar
    12     3    21    1
    13    21    23    1
    14    23    24   ar
    15    24    25   ar
    16    25    26   ar
    17    26    30    1
    18    30    31    1
    19    30    32    2
    20    30    33    2
    21    26    27   ar
    22    27    28   ar
    23    28    29    1
    24     3     4   ar
    25     4     5   ar
    26     5     6   ar
    27    16    17    1
    28    17    18    1
    29    13    19    1
    30    19    20    1
    31    20    10    1
    32    18    13    1
    33     6     1   ar
    34    28    23   ar
    35     7     8    1
    36    21    22    1
@<TRIPOS>MOLECULE
*****
 33 36 0 0 0
SMALL
GASTEIGER

@<TRIPOS>ATOM
      1 C          61.8388   88.1579    9.8362 C.ar    1  UNL1        0.1330
      2 C          62.2431   88.5539   11.2253 C.ar    1  UNL1        0.0685
      3 C          61.5783   89.7190   11.8965 C.ar    1  UNL1        0.1368
      4 N          60.5092   90.4882   11.1786 N.ar    1  UNL1       -0.2088
      5 C          60.1049   90.0922    9.7894 C.ar    1  UNL1        0.2012
      6 N          60.7696   88.9271    9.1182 N.ar    1  UNL1       -0.2091
      7 N          62.5035   86.9928    9.1649 N.pl3   1  UNL1       -0.3196
      8 H          62.8453   87.0834    8.2461 H       1  UNL1        0.1481
      9 C          62.0133   81.6245   14.3179 C.3     1  UNL1        0.0296
     10 C          62.7604   81.3544   13.0455 C.3     1  UNL1        0.0930
     11 C          62.9868   80.0006   13.6505 C.3     1  UNL1        0.0296
     12 C          62.3779   82.7648   12.7066 C.3     1  UNL1        0.0296
     13 C          62.9359   83.0834   11.3511 C.3     1  UNL1        0.0298
     14 C          62.1758   84.2138   11.9792 C.3     1  UNL1        0.0042
     15 C          62.0318   85.5169   11.2504 C.3     1  UNL1        0.0196
     16 C          62.6477   85.6896    9.8937 C.3     1  UNL1        0.0704
     17 C          63.4077   84.5592    9.2656 C.3     1  UNL1        0.0196
     18 C          63.5518   83.2561    9.9944 C.3     1  UNL1        0.0042
     19 C          63.6633   81.8700   10.8524 C.3     1  UNL1        0.1419
     20 O          63.5548   80.8015   11.8996 O.3     1  UNL1       -0.3585
     21 N          61.9826   90.1150   13.2857 N.pl3   1  UNL1       -0.2961
     22 H          61.3394   90.0364   14.0268 H       1  UNL1        0.1537
     23 C          63.3670   90.6308   13.5456 C.ar    1  UNL1        0.0773
     24 C          64.0724   91.4446   12.5015 C.ar    1  UNL1        0.0182
     25 C          65.4569   91.9604   12.7614 C.ar    1  UNL1        0.0198
     26 C          66.1357   91.6623   14.0654 C.ar    1  UNL1        0.1080
     27 C          65.4302   90.8485   15.1094 C.ar    1  UNL1        0.0492
     28 C          64.0459   90.3328   14.8495 C.ar    1  UNL1        0.1547
     29 F          63.3404   89.5189   15.8936 F       1  UNL1       -0.2028
     30 S          67.5201   92.1781   14.3253 S.O2    1  UNL1        0.0105
     31 C          68.9044   92.6938   14.5852 C.3     1  UNL1        0.1816
     32 O          67.2481   92.1648   15.8003 O.2     1  UNL1       -0.1686
     33 O          67.7921   92.1913   12.8502 O.2     1  UNL1       -0.1686
@<TRIPOS>BOND
     1     9    10    1
     2    10    11    1
     3    10    12    1
     4    13    12    1
     5    13    14    1
     6    14    15    1
     7    15    16    1
     8    16     7    1
     9     7     1    1
    10     1     2   ar
    11     2     3   ar
    12     3    21    1
    13    21    23    1
    14    23    24   ar
    15    24    25   ar
    16    25    26   ar
    17    26    30    1
    18    30    31    1
    19    30    32    2
    20    30    33    2
    21    26    27   ar
    22    27    28   ar
    23    28    29    1
    24     3     4   ar
    25     4     5   ar
    26     5     6   ar
    27    16    17    1
    28    17    18    1
    29    13    19    1
    30    19    20    1
    31    20    10    1
    32    18    13    1
    33     6     1   ar
    34    28    23   ar
    35     7     8    1
    36    21    22    1
@<TRIPOS>MOLECULE
*****
 33 36 0 0 0
SMALL
GASTEIGER

@<TRIPOS>ATOM
      1 C          61.4286   88.4728    9.6246 C.ar    1  UNL1        0.1330
      2 C          62.5431   89.4764    9.6005 C.ar    1  UNL1        0.0685
      3 C          62.3627   90.8134   10.2561 C.ar    1  UNL1        0.1368
      4 N          61.0678   91.1468   10.9359 N.ar    1  UNL1       -0.2088
      5 C          59.9533   90.1431   10.9601 C.ar    1  UNL1        0.2012
      6 N          60.1337   88.8061   10.3045 N.ar    1  UNL1       -0.2091
      7 N          61.6090   87.1358    8.9690 N.pl3   1  UNL1       -0.3196
      8 H          61.3920   87.0218    8.0155 H       1  UNL1        0.1481
      9 C          62.8901   82.3189   14.5158 C.3     1  UNL1        0.0296
     10 C          63.5413   82.0939   13.1834 C.3     1  UNL1        0.0930
     11 C          64.1304   80.8870   13.8515 C.3     1  UNL1        0.0296
     12 C          62.8160   83.3479   12.7939 C.3     1  UNL1        0.0296
     13 C          63.1420   83.6456   11.3603 C.3     1  UNL1        0.0298
     14 C          62.2160   84.6406   11.9948 C.3     1  UNL1        0.0042
     15 C          61.7050   85.8039   11.1977 C.3     1  UNL1        0.0196
     16 C          62.1200   85.9723    9.7661 C.3     1  UNL1        0.0704
     17 C          63.0460   84.9774    9.1316 C.3     1  UNL1        0.0196
     18 C          63.5570   83.8141    9.9288 C.3     1  UNL1        0.0042
     19 C          64.0688   82.5757   10.8639 C.3     1  UNL1        0.1419
     20 O          64.3155   81.6167   11.9906 O.3     1  UNL1       -0.3585
     21 N          63.4772   91.8171   10.2320 N.pl3   1  UNL1       -0.2961
     22 H          63.5927   92.4057    9.4513 H       1  UNL1        0.1537
     23 C          64.4156   91.9240   11.3973 C.ar    1  UNL1        0.0773
     24 C          65.5813   92.8661   11.3377 C.ar    1  UNL1        0.0182
     25 C          66.5197   92.9729   12.5030 C.ar    1  UNL1        0.0198
     26 C          66.2925   92.1376   13.7280 C.ar    1  UNL1        0.1080
     27 C          65.1267   91.1955   13.7877 C.ar    1  UNL1        0.0492
     28 C          64.1883   91.0887   12.6223 C.ar    1  UNL1        0.1547
     29 F          63.0226   90.1465   12.6820 F       1  UNL1       -0.2028
     30 S          67.2308   92.2445   14.8933 S.O2    1  UNL1        0.0105
     31 C          68.1692   92.3513   16.0586 C.3     1  UNL1        0.1816
     32 O          68.3993   92.2411   13.9527 O.2     1  UNL1       -0.1686
     33 O          66.0624   92.2478   15.8339 O.2     1  UNL1       -0.1686
@<TRIPOS>BOND
     1     9    10    1
     2    10    11    1
     3    10    12    1
     4    13    12    1
     5    13    14    1
     6    14    15    1
     7    15    16    1
     8    16     7    1
     9     7     1    1
    10     1     2   ar
    11     2     3   ar
    12     3    21    1
    13    21    23    1
    14    23    24   ar
    15    24    25   ar
    16    25    26   ar
    17    26    30    1
    18    30    31    1
    19    30    32    2
    20    30    33    2
    21    26    27   ar
    22    27    28   ar
    23    28    29    1
    24     3     4   ar
    25     4     5   ar
    26     5     6   ar
    27    16    17    1
    28    17    18    1
    29    13    19    1
    30    19    20    1
    31    20    10    1
    32    18    13    1
    33     6     1   ar
    34    28    23   ar
    35     7     8    1
    36    21    22    1
@<TRIPOS>MOLECULE
*****
 33 36 0 0 0
SMALL
GASTEIGER

@<TRIPOS>ATOM
      1 C          62.8099   90.5749   12.9385 C.ar    1  UNL1        0.1330
      2 C          62.7610   89.4530   13.9329 C.ar    1  UNL1        0.0685
      3 C          63.8419   89.3171   14.9641 C.ar    1  UNL1        0.1368
      4 N          64.9716   90.3032   15.0009 N.ar    1  UNL1       -0.2088
      5 C          65.0205   91.4251   14.0064 C.ar    1  UNL1        0.2012
      6 N          63.9397   91.5609   12.9752 N.ar    1  UNL1       -0.2091
      7 N          61.7291   90.7107   11.9073 N.pl3   1  UNL1       -0.3196
      8 H          61.1691   91.5201   11.8849 H       1  UNL1        0.1481
      9 C          62.7069   84.7555    7.5265 C.3     1  UNL1        0.0296
     10 C          61.3924   85.4775    7.5010 C.3     1  UNL1        0.0930
     11 C          61.0205   84.4389    6.4846 C.3     1  UNL1        0.0296
     12 C          62.0390   86.3651    8.5228 C.3     1  UNL1        0.0296
     13 C          61.0464   87.4186    8.9163 C.3     1  UNL1        0.0298
     14 C          62.3659   87.5301    9.6208 C.3     1  UNL1        0.0042
     15 C          62.5935   88.6274   10.6178 C.3     1  UNL1        0.0196
     16 C          61.5015   89.6133   10.9103 C.3     1  UNL1        0.0704
     17 C          60.1820   89.5019   10.2057 C.3     1  UNL1        0.0196
     18 C          59.9544   88.4046    9.2088 C.3     1  UNL1        0.0042
     19 C          59.7862   87.1820    8.1378 C.3     1  UNL1        0.1419
     20 O          60.0000   85.9824    7.2631 O.3     1  UNL1       -0.3585
     21 N          63.7929   88.1952   15.9586 N.pl3   1  UNL1       -0.2961
     22 H          63.8183   88.3909   16.9231 H       1  UNL1        0.1537
     23 C          63.7053   86.7751   15.4834 C.ar    1  UNL1        0.0773
     24 C          64.2474   86.4003   14.1360 C.ar    1  UNL1        0.0182
     25 C          64.1598   84.9802   13.6609 C.ar    1  UNL1        0.0198
     26 C          63.5301   83.9350   14.5332 C.ar    1  UNL1        0.1080
     27 C          62.9880   84.3099   15.8807 C.ar    1  UNL1        0.0492
     28 C          63.0756   85.7299   16.3558 C.ar    1  UNL1        0.1547
     29 F          62.5335   86.1048   17.7033 F       1  UNL1       -0.2028
     30 S          63.4424   82.5149   14.0581 S.O2    1  UNL1        0.0105
     31 C          63.3548   81.0949   13.5830 C.3     1  UNL1        0.1816
     32 O          64.5473   82.7748   13.0775 O.2     1  UNL1       -0.1686
     33 O          62.3375   82.2550   15.0387 O.2     1  UNL1       -0.1686
@<TRIPOS>BOND
     1     9    10    1
     2    10    11    1
     3    10    12    1
     4    13    12    1
     5    13    14    1
     6    14    15    1
     7    15    16    1
     8    16     7    1
     9     7     1    1
    10     1     2   ar
    11     2     3   ar
    12     3    21    1
    13    21    23    1
    14    23    24   ar
    15    24    25   ar
    16    25    26   ar
    17    26    30    1
    18    30    31    1
    19    30    32    2
    20    30    33    2
    21    26    27   ar
    22    27    28   ar
    23    28    29    1
    24     3     4   ar
    25     4     5   ar
    26     5     6   ar
    27    16    17    1
    28    17    18    1
    29    13    19    1
    30    19    20    1
    31    20    10    1
    32    18    13    1
    33     6     1   ar
    34    28    23   ar
    35     7     8    1
    36    21    22    1
@<TRIPOS>MOLECULE
*****
 33 36 0 0 0
SMALL
GASTEIGER

@<TRIPOS>ATOM
      1 C          63.7587   88.8488   14.6827 C.ar    1  UNL1        0.1330
      2 C          64.0484   87.3887   14.8669 C.ar    1  UNL1        0.0685
      3 C          63.7774   86.7310   16.1876 C.ar    1  UNL1        0.1368
      4 N          63.2167   87.5336   17.3240 N.ar    1  UNL1       -0.2088
      5 C          62.9270   88.9937   17.1398 C.ar    1  UNL1        0.2012
      6 N          63.1979   89.6514   15.8192 N.ar    1  UNL1       -0.2091
      7 N          64.0296   89.5065   13.3621 N.pl3   1  UNL1       -0.3196
      8 H          64.8117   90.0950   13.2566 H       1  UNL1        0.1481
      9 C          60.0327   86.1914    8.0098 C.3     1  UNL1        0.0296
     10 C          59.9770   87.6838    8.1496 C.3     1  UNL1        0.0930
     11 C          59.0350   87.6002    6.9853 C.3     1  UNL1        0.0296
     12 C          60.9307   87.4554    9.2847 C.3     1  UNL1        0.0296
     13 C          61.2676   88.7892    9.8827 C.3     1  UNL1        0.0298
     14 C          61.9466   87.6314   10.5522 C.3     1  UNL1        0.0042
     15 C          62.8673   87.8705   11.7120 C.3     1  UNL1        0.0196
     16 C          63.1089   89.2674   12.2022 C.3     1  UNL1        0.0704
     17 C          62.4299   90.4252   11.5327 C.3     1  UNL1        0.0196
     18 C          61.5092   90.1861   10.3729 C.3     1  UNL1        0.0042
     19 C          60.5221   89.8420    9.1171 C.3     1  UNL1        0.1419
     20 O          59.7245   89.1588    8.0460 O.3     1  UNL1       -0.3585
     21 N          64.0672   85.2708   16.3718 N.pl3   1  UNL1       -0.2961
     22 H          64.4114   84.9422   17.2336 H       1  UNL1        0.1537
     23 C          63.8324   84.3114   15.2428 C.ar    1  UNL1        0.0773
     24 C          62.5481   83.5401   15.1688 C.ar    1  UNL1        0.0182
     25 C          62.3134   82.5807   14.0399 C.ar    1  UNL1        0.0198
     26 C          63.3630   82.3926   12.9849 C.ar    1  UNL1        0.1080
     27 C          64.6474   83.1640   13.0590 C.ar    1  UNL1        0.0492
     28 C          64.8821   84.1234   14.1879 C.ar    1  UNL1        0.1547
     29 F          66.1665   84.8948   14.2619 F       1  UNL1       -0.2028
     30 S          63.1283   81.4332   11.8560 S.O2    1  UNL1        0.0105
     31 C          62.8937   80.4739   10.7271 C.3     1  UNL1        0.1816
     32 O          63.7649   82.4000   10.9021 O.2     1  UNL1       -0.1686
     33 O          62.4918   80.4665   12.8100 O.2     1  UNL1       -0.1686
@<TRIPOS>BOND
     1     9    10    1
     2    10    11    1
     3    10    12    1
     4    13    12    1
     5    13    14    1
     6    14    15    1
     7    15    16    1
     8    16     7    1
     9     7     1    1
    10     1     2   ar
    11     2     3   ar
    12     3    21    1
    13    21    23    1
    14    23    24   ar
    15    24    25   ar
    16    25    26   ar
    17    26    30    1
    18    30    31    1
    19    30    32    2
    20    30    33    2
    21    26    27   ar
    22    27    28   ar
    23    28    29    1
    24     3     4   ar
    25     4     5   ar
    26     5     6   ar
    27    16    17    1
    28    17    18    1
    29    13    19    1
    30    19    20    1
    31    20    10    1
    32    18    13    1
    33     6     1   ar
    34    28    23   ar
    35     7     8    1
    36    21    22    1
