@<TRIPOS>MOLECULE
*****
 35 38 0 0 0
SMALL
GASTEIGER

@<TRIPOS>ATOM
      1 C          65.3235   91.7308   13.6501 C.ar    1  UNL1       -0.0044
      2 C          64.4725   91.3510   12.4748 C.ar    1  UNL1       -0.0014
      3 C          63.8857   89.9733   12.3876 C.ar    1  UNL1        0.0144
      4 C          64.1500   88.9754   13.4758 C.ar    1  UNL1        0.0516
      5 C          65.0011   89.3551   14.6512 C.ar    1  UNL1        0.0144
      6 C          65.5878   90.7328   14.7384 C.ar    1  UNL1       -0.0014
      7 N          63.5632   87.5976   13.3886 N.am    1  UNL1       -0.2681
      8 C          64.1901   86.4660   14.1478 C.2     1  UNL1        0.3077
      9 O          65.4037   86.7122   14.9942 O.2     1  UNL1       -0.2522
     10 N          63.6033   85.0883   14.0606 N.am    1  UNL1       -0.2632
     11 C          63.9398   83.7526   14.6545 C.3     1  UNL1        0.1010
     12 C          62.7735   83.1400   13.9373 C.3     1  UNL1        0.0636
     13 C          62.4370   84.4756   13.3434 C.3     1  UNL1        0.1010
     14 H          62.7667   87.4361   12.8330 H       1  UNL1        0.1564
     15 C          62.1867   81.7622   13.8502 C.ar    1  UNL1        0.0012
     16 C          63.0216   80.6219   13.3476 C.ar    1  UNL1        0.0948
     17 N          62.4348   79.2442   13.2604 N.ar    1  UNL1       -0.2414
     18 C          61.0132   79.0068   13.6758 C.ar    1  UNL1        0.1129
     19 C          60.1783   80.1471   14.1784 C.ar    1  UNL1        0.0607
     20 N          58.7566   79.9098   14.5938 N.pl3   1  UNL1       -0.3558
     21 C          60.7651   81.5249   14.2656 C.ar    1  UNL1        0.0130
     22 H          58.3715   79.0055   14.5366 H       1  UNL1        0.1424
     23 H          58.2087   80.6582   14.9237 H       1  UNL1        0.1424
     24 C          66.6461   93.5335   14.9734 C.3     1  UNL1        0.0262
     25 C          65.9103   93.1085   13.7373 C.3     1  UNL1        0.0945
     26 N          65.7612   94.0613   12.5883 N.am    1  UNL1       -0.2962
     27 C          66.6313   93.9154   11.3753 C.2     1  UNL1        0.2821
     28 O          67.6505   92.8167   11.3111 O.2     1  UNL1       -0.2668
     29 H          65.0922   94.7824   12.6304 H       1  UNL1        0.1501
     30 C          66.4822   94.8681   10.2263 C.ar    1  UNL1        0.2169
     31 N          67.4190   94.7863    9.0577 N.ar    1  UNL1       -0.2212
     32 C          67.2699   95.7390    7.9088 C.ar    1  UNL1        0.1023
     33 C          66.1839   96.7736    7.9285 C.ar    1  UNL1        0.0414
     34 C          65.2471   96.8555    9.0971 C.ar    1  UNL1        0.1023
     35 N          65.3962   95.9027   10.2460 N.ar    1  UNL1       -0.2212
@<TRIPOS>BOND
     1    25    24    1
     2    25    26    1
     3    26    27   am
     4    27    28    2
     5    27    30    1
     6    30    31   ar
     7    31    32   ar
     8    32    33   ar
     9    33    34   ar
    10    34    35   ar
    11    25     1    1
    12     1     2   ar
    13     2     3   ar
    14     3     4   ar
    15     4     7    1
    16     7     8   am
    17     8     9    2
    18     8    10   am
    19    10    11    1
    20    11    12    1
    21    12    15    1
    22    15    16   ar
    23    16    17   ar
    24    17    18   ar
    25    18    19   ar
    26    19    20    1
    27    19    21   ar
    28    12    13    1
    29     4     5   ar
    30     5     6   ar
    31    35    30   ar
    32     6     1   ar
    33    13    10    1
    34    21    15   ar
    35    26    29    1
    36     7    14    1
    37    20    22    1
    38    20    23    1
@<TRIPOS>MOLECULE
*****
 35 38 0 0 0
SMALL
GASTEIGER

@<TRIPOS>ATOM
      1 C          59.9246   91.4800    4.5315 C.ar    1  UNL1       -0.0044
      2 C          61.3596   91.0822    4.3508 C.ar    1  UNL1       -0.0014
      3 C          62.1499   91.6282    3.1987 C.ar    1  UNL1        0.0144
      4 C          61.5053   92.5721    2.2274 C.ar    1  UNL1        0.0516
      5 C          60.0703   92.9699    2.4080 C.ar    1  UNL1        0.0144
      6 C          59.2800   92.4239    3.5600 C.ar    1  UNL1       -0.0014
      7 N          62.2957   93.1181    1.0753 N.am    1  UNL1       -0.2681
      8 C          61.8052   92.9254   -0.3290 C.2     1  UNL1        0.3077
      9 O          60.5244   92.1867   -0.5813 O.2     1  UNL1       -0.2522
     10 N          62.5955   93.4714   -1.4811 N.am    1  UNL1       -0.2632
     11 C          62.4312   93.4773   -2.9721 C.3     1  UNL1        0.1010
     12 C          63.7132   94.2437   -3.1103 C.3     1  UNL1        0.0636
     13 C          63.8776   94.2379   -1.6194 C.3     1  UNL1        0.1010
     14 H          63.1363   93.6030    1.2409 H       1  UNL1        0.1564
     15 C          64.5035   94.7897   -4.2623 C.ar    1  UNL1        0.0012
     16 C          64.6272   96.2726   -4.4512 C.ar    1  UNL1        0.0948
     17 N          65.4175   96.8186   -5.6032 N.ar    1  UNL1       -0.2414
     18 C          66.0842   95.8818   -6.5664 C.ar    1  UNL1        0.1129
     19 C          65.9606   94.3989   -6.3776 C.ar    1  UNL1        0.0607
     20 N          66.6273   93.4619   -7.3408 N.pl3   1  UNL1       -0.3558
     21 C          65.1702   93.8528   -5.2255 C.ar    1  UNL1        0.0130
     22 H          67.1460   93.8203   -8.0969 H       1  UNL1        0.1424
     23 H          66.5462   92.4887   -7.2168 H       1  UNL1        0.1424
     24 C          57.6389   90.8556    5.5970 C.3     1  UNL1        0.0262
     25 C          59.1343   90.9340    5.6835 C.3     1  UNL1        0.0945
     26 N          59.8395   90.4663    6.9221 N.am    1  UNL1       -0.2962
     27 C          59.6066   89.0775    7.4386 C.2     1  UNL1        0.2821
     28 O          58.6686   88.1562    6.7166 O.2     1  UNL1       -0.2668
     29 H          60.4551   91.0710    7.3961 H       1  UNL1        0.1501
     30 C          60.3118   88.6098    8.6773 C.ar    1  UNL1        0.2169
     31 N          61.0588   89.5913    9.5308 N.ar    1  UNL1       -0.2212
     32 C          61.7639   89.1236   10.7694 C.ar    1  UNL1        0.1023
     33 C          61.7220   87.6745   11.1544 C.ar    1  UNL1        0.0414
     34 C          60.9749   86.6930   10.3008 C.ar    1  UNL1        0.1023
     35 N          60.2698   87.1607    9.0623 N.ar    1  UNL1       -0.2212
@<TRIPOS>BOND
     1    25    24    1
     2    25    26    1
     3    26    27   am
     4    27    28    2
     5    27    30    1
     6    30    31   ar
     7    31    32   ar
     8    32    33   ar
     9    33    34   ar
    10    34    35   ar
    11    25     1    1
    12     1     2   ar
    13     2     3   ar
    14     3     4   ar
    15     4     7    1
    16     7     8   am
    17     8     9    2
    18     8    10   am
    19    10    11    1
    20    11    12    1
    21    12    15    1
    22    15    16   ar
    23    16    17   ar
    24    17    18   ar
    25    18    19   ar
    26    19    20    1
    27    19    21   ar
    28    12    13    1
    29     4     5   ar
    30     5     6   ar
    31    35    30   ar
    32     6     1   ar
    33    13    10    1
    34    21    15   ar
    35    26    29    1
    36     7    14    1
    37    20    22    1
    38    20    23    1
@<TRIPOS>MOLECULE
*****
 35 38 0 0 0
SMALL
GASTEIGER

@<TRIPOS>ATOM
      1 C          59.5577   90.0919    6.6558 C.ar    1  UNL1       -0.0044
      2 C          58.1746   90.4748    6.2197 C.ar    1  UNL1       -0.0014
      3 C          57.9745   91.2351    4.9422 C.ar    1  UNL1        0.0144
      4 C          59.1576   91.6124    4.1008 C.ar    1  UNL1        0.0516
      5 C          60.5408   91.2295    4.5369 C.ar    1  UNL1        0.0144
      6 C          60.7409   90.4692    5.8144 C.ar    1  UNL1       -0.0014
      7 N          58.9575   92.3727    2.8234 N.am    1  UNL1       -0.2681
      8 C          60.1388   92.7331    1.9722 C.2     1  UNL1        0.3077
      9 O          61.5202   92.3334    2.3986 O.2     1  UNL1       -0.2522
     10 N          59.9388   93.4934    0.6947 N.am    1  UNL1       -0.2632
     11 C          60.8436   94.0150   -0.3820 C.3     1  UNL1        0.1010
     12 C          59.6558   94.5686   -1.1119 C.3     1  UNL1        0.0636
     13 C          58.7510   94.0471   -0.0352 C.3     1  UNL1        0.1010
     14 H          58.0508   92.6351    2.5435 H       1  UNL1        0.1564
     15 C          59.4557   95.3288   -2.3894 C.ar    1  UNL1        0.0012
     16 C          60.6236   95.9897   -3.0596 C.ar    1  UNL1        0.0948
     17 N          60.4236   96.7499   -4.3371 N.ar    1  UNL1       -0.2414
     18 C          59.0556   96.8494   -4.9443 C.ar    1  UNL1        0.1129
     19 C          57.8877   96.1885   -4.2741 C.ar    1  UNL1        0.0607
     20 N          56.5197   96.2879   -4.8813 N.pl3   1  UNL1       -0.3558
     21 C          58.0878   95.4283   -2.9966 C.ar    1  UNL1        0.0130
     22 H          56.3883   96.7869   -5.7197 H       1  UNL1        0.1424
     23 H          55.7531   95.8542   -4.4414 H       1  UNL1        0.1424
     24 C          59.1374   87.9768    8.1048 C.3     1  UNL1        0.0262
     25 C          59.7578   89.3316    7.9333 C.3     1  UNL1        0.0945
     26 N          60.5782   89.9263    9.0394 N.am    1  UNL1       -0.2962
     27 C          61.6489   89.1104    9.7010 C.2     1  UNL1        0.2821
     28 O          61.8992   87.6997    9.2567 O.2     1  UNL1       -0.2668
     29 H          60.4140   90.8522    9.3310 H       1  UNL1        0.1501
     30 C          62.4694   89.7051   10.8071 C.ar    1  UNL1        0.2169
     31 N          62.4998   89.0478   12.1550 N.ar    1  UNL1       -0.2212
     32 C          63.3202   89.6425   13.2610 C.ar    1  UNL1        0.1023
     33 C          64.1102   90.8944   13.0190 C.ar    1  UNL1        0.0414
     34 C          64.0798   91.5517   11.6710 C.ar    1  UNL1        0.1023
     35 N          63.2594   90.9570   10.5651 N.ar    1  UNL1       -0.2212
@<TRIPOS>BOND
     1    25    24    1
     2    25    26    1
     3    26    27   am
     4    27    28    2
     5    27    30    1
     6    30    31   ar
     7    31    32   ar
     8    32    33   ar
     9    33    34   ar
    10    34    35   ar
    11    25     1    1
    12     1     2   ar
    13     2     3   ar
    14     3     4   ar
    15     4     7    1
    16     7     8   am
    17     8     9    2
    18     8    10   am
    19    10    11    1
    20    11    12    1
    21    12    15    1
    22    15    16   ar
    23    16    17   ar
    24    17    18   ar
    25    18    19   ar
    26    19    20    1
    27    19    21   ar
    28    12    13    1
    29     4     5   ar
    30     5     6   ar
    31    35    30   ar
    32     6     1   ar
    33    13    10    1
    34    21    15   ar
    35    26    29    1
    36     7    14    1
    37    20    22    1
    38    20    23    1
@<TRIPOS>MOLECULE
*****
 35 38 0 0 0
SMALL
GASTEIGER

@<TRIPOS>ATOM
      1 C          60.0401   88.2953    9.2870 C.ar    1  UNL1       -0.0044
      2 C          59.3840   87.6269    8.1154 C.ar    1  UNL1       -0.0014
      3 C          59.1289   88.4011    6.8562 C.ar    1  UNL1        0.0144
      4 C          59.5298   89.8439    6.7687 C.ar    1  UNL1        0.0516
      5 C          60.1859   90.5124    7.9403 C.ar    1  UNL1        0.0144
      6 C          60.4411   89.7381    9.1995 C.ar    1  UNL1       -0.0014
      7 N          59.2747   90.6181    5.5096 N.am    1  UNL1       -0.2681
      8 C          60.4210   91.2293    4.7596 C.2     1  UNL1        0.3077
      9 O          61.8224   91.0662    5.2689 O.2     1  UNL1       -0.2522
     10 N          60.1658   92.0036    3.5005 N.am    1  UNL1       -0.2632
     11 C          61.0256   92.7340    2.5119 C.3     1  UNL1        0.1010
     12 C          59.8050   93.0985    1.7198 C.3     1  UNL1        0.0636
     13 C          58.9452   92.3681    2.7084 C.3     1  UNL1        0.1010
     14 H          58.3548   90.7251    5.1753 H       1  UNL1        0.1564
     15 C          59.5499   93.8728    0.4607 C.ar    1  UNL1        0.0012
     16 C          59.4910   95.3711    0.5005 C.ar    1  UNL1        0.0948
     17 N          59.2358   96.1453   -0.7587 N.ar    1  UNL1       -0.2414
     18 C          59.0396   95.4213   -2.0576 C.ar    1  UNL1        0.1129
     19 C          59.0985   93.9230   -2.0974 C.ar    1  UNL1        0.0607
     20 N          58.9023   93.1989   -3.3963 N.pl3   1  UNL1       -0.3558
     21 C          59.3537   93.1488   -0.8382 C.ar    1  UNL1        0.0130
     22 H          58.7348   93.7071   -4.2228 H       1  UNL1        0.1424
     23 H          58.9410   92.2155   -3.4224 H       1  UNL1        0.1424
     24 C          59.9219   88.1069   11.8755 C.3     1  UNL1        0.0262
     25 C          60.2952   87.5211   10.5461 C.3     1  UNL1        0.0945
     26 N          60.9237   86.1608   10.4758 N.am    1  UNL1       -0.2962
     27 C          62.1523   85.8597   11.2820 C.2     1  UNL1        0.2821
     28 O          62.7524   86.9188   12.1585 O.2     1  UNL1       -0.2668
     29 H          60.5299   85.4657    9.9005 H       1  UNL1        0.1501
     30 C          62.7808   84.4995   11.2117 C.ar    1  UNL1        0.2169
     31 N          63.6167   84.1200   10.0254 N.ar    1  UNL1       -0.2212
     32 C          64.2451   82.7598    9.9552 C.ar    1  UNL1        0.1023
     33 C          64.0377   81.7792   11.0712 C.ar    1  UNL1        0.0414
     34 C          63.2018   82.1588   12.2574 C.ar    1  UNL1        0.1023
     35 N          62.5733   83.5189   12.3276 N.ar    1  UNL1       -0.2212
@<TRIPOS>BOND
     1    25    24    1
     2    25    26    1
     3    26    27   am
     4    27    28    2
     5    27    30    1
     6    30    31   ar
     7    31    32   ar
     8    32    33   ar
     9    33    34   ar
    10    34    35   ar
    11    25     1    1
    12     1     2   ar
    13     2     3   ar
    14     3     4   ar
    15     4     7    1
    16     7     8   am
    17     8     9    2
    18     8    10   am
    19    10    11    1
    20    11    12    1
    21    12    15    1
    22    15    16   ar
    23    16    17   ar
    24    17    18   ar
    25    18    19   ar
    26    19    20    1
    27    19    21   ar
    28    12    13    1
    29     4     5   ar
    30     5     6   ar
    31    35    30   ar
    32     6     1   ar
    33    13    10    1
    34    21    15   ar
    35    26    29    1
    36     7    14    1
    37    20    22    1
    38    20    23    1
@<TRIPOS>MOLECULE
*****
 35 38 0 0 0
SMALL
GASTEIGER

@<TRIPOS>ATOM
      1 C          66.0110   92.1686   14.2284 C.ar    1  UNL1       -0.0044
      2 C          64.6627   91.7636   13.7108 C.ar    1  UNL1       -0.0014
      3 C          64.2278   90.3303   13.7918 C.ar    1  UNL1        0.0144
      4 C          65.1412   89.3021   14.3904 C.ar    1  UNL1        0.0516
      5 C          66.4896   89.7071   14.9081 C.ar    1  UNL1        0.0144
      6 C          66.9245   91.1404   14.8270 C.ar    1  UNL1       -0.0014
      7 N          64.7063   87.8688   14.4715 N.am    1  UNL1       -0.2681
      8 C          63.8874   87.2699   13.3667 C.2     1  UNL1        0.3077
      9 O          63.5033   88.1043   12.1809 O.2     1  UNL1       -0.2522
     10 N          63.4525   85.8366   13.4477 N.am    1  UNL1       -0.2632
     11 C          62.6538   84.9192   12.5698 C.3     1  UNL1        0.1010
     12 C          62.8375   83.8096   13.5623 C.3     1  UNL1        0.0636
     13 C          63.6362   84.7269   14.4402 C.3     1  UNL1        0.1010
     14 H          64.9584   87.3211   15.2498 H       1  UNL1        0.1564
     15 C          62.4026   82.3763   13.6434 C.ar    1  UNL1        0.0012
     16 C          63.3808   81.2780   13.3488 C.ar    1  UNL1        0.0948
     17 N          62.9459   79.8447   13.4298 N.ar    1  UNL1       -0.2414
     18 C          61.5329   79.5098   13.8055 C.ar    1  UNL1        0.1129
     19 C          60.5547   80.6081   14.1001 C.ar    1  UNL1        0.0607
     20 N          59.1416   80.2732   14.4757 N.pl3   1  UNL1       -0.3558
     21 C          60.9896   82.0414   14.0190 C.ar    1  UNL1        0.0130
     22 H          58.8562   79.3325   14.5289 H       1  UNL1        0.1424
     23 H          58.4996   80.9941   14.6691 H       1  UNL1        0.1424
     24 C          67.2314   94.2120   15.2701 C.3     1  UNL1        0.0262
     25 C          66.4458   93.6019   14.1473 C.3     1  UNL1        0.0945
     26 N          66.0950   94.4252   12.9434 N.am    1  UNL1       -0.2962
     27 C          66.6721   94.0778   11.6032 C.2     1  UNL1        0.2821
     28 O          67.5999   92.9071   11.4668 O.2     1  UNL1       -0.2668
     29 H          65.4861   95.1936   13.0330 H       1  UNL1        0.1501
     30 C          66.3213   94.9010   10.3993 C.ar    1  UNL1        0.2169
     31 N          65.2576   95.9542   10.4950 N.ar    1  UNL1       -0.2212
     32 C          64.9068   96.7774    9.2911 C.ar    1  UNL1        0.1023
     33 C          65.6199   96.5474    7.9916 C.ar    1  UNL1        0.0414
     34 C          66.6836   95.4942    7.8960 C.ar    1  UNL1        0.1023
     35 N          67.0343   94.6710    9.0998 N.ar    1  UNL1       -0.2212
@<TRIPOS>BOND
     1    25    24    1
     2    25    26    1
     3    26    27   am
     4    27    28    2
     5    27    30    1
     6    30    31   ar
     7    31    32   ar
     8    32    33   ar
     9    33    34   ar
    10    34    35   ar
    11    25     1    1
    12     1     2   ar
    13     2     3   ar
    14     3     4   ar
    15     4     7    1
    16     7     8   am
    17     8     9    2
    18     8    10   am
    19    10    11    1
    20    11    12    1
    21    12    15    1
    22    15    16   ar
    23    16    17   ar
    24    17    18   ar
    25    18    19   ar
    26    19    20    1
    27    19    21   ar
    28    12    13    1
    29     4     5   ar
    30     5     6   ar
    31    35    30   ar
    32     6     1   ar
    33    13    10    1
    34    21    15   ar
    35    26    29    1
    36     7    14    1
    37    20    22    1
    38    20    23    1
