@<TRIPOS>MOLECULE
*****
 41 44 0 0 0
SMALL
GASTEIGER

@<TRIPOS>ATOM
      1 C          64.4824   85.8815   14.6142 C.3     1  UNL1        0.1484
      2 O          65.7890   85.2381   14.9730 O.3     1  UNL1       -0.3810
      3 H          66.4556   85.9253   15.1291 H       1  UNL1        0.2105
      4 C          64.3759   87.3762   14.5466 C.3     1  UNL1        0.1245
      5 N          63.7945   88.1396   15.6995 N.am    1  UNL1       -0.2735
      6 C          63.5083   89.6054   15.5603 C.2     1  UNL1        0.2492
      7 O          62.9268   90.3688   16.7133 O.2     1  UNL1       -0.2699
      8 C          63.8034   90.3080   14.2683 C.ar    1  UNL1        0.0567
      9 C          62.9232   90.0839   13.0746 C.ar    1  UNL1        0.0063
     10 C          63.2184   90.7863   11.7826 C.ar    1  UNL1        0.0225
     11 C          64.3939   91.7129   11.6843 C.ar    1  UNL1        0.1202
     12 N          64.9294   92.5382   10.5519 N.ar    1  UNL1       -0.1946
     13 C          66.1406   93.2724   11.0457 C.ar    1  UNL1        0.2924
     14 O          66.3537   92.9008   12.4833 O.2     1  UNL1       -0.4237
     15 C          65.2741   91.9371   12.8779 C.ar    1  UNL1        0.1662
     16 C          64.9789   91.2346   14.1699 C.ar    1  UNL1        0.0437
     17 N          66.9897   94.2130   10.2430 N.pl3   1  UNL1       -0.2619
     18 C          66.8537   95.6946   10.4337 C.3     1  UNL1        0.1166
     19 C          67.9748   93.6720    9.2497 C.3     1  UNL1        0.0952
     20 C          68.5270   92.2876    9.4188 C.3     1  UNL1        0.0233
     21 C          62.1465   86.8324   17.2245 C.3     1  UNL1        0.0233
     22 C          63.4993   87.4371   16.9916 C.3     1  UNL1        0.0939
     23 C          63.2822   85.0302   14.3230 C.3     1  UNL1        0.1075
     24 N          62.3039   85.4495   13.2660 N.am    1  UNL1       -0.2695
     25 C          62.5485   85.0866   11.8313 C.2     1  UNL1        0.4020
     26 O          63.7714   84.3044   11.4535 O.2     1  UNL1       -0.2264
     27 H          61.5013   85.9629   13.5139 H       1  UNL1        0.1528
     28 O          61.5702   85.5059   10.7743 O.3     1  UNL1       -0.4291
     29 C          60.9213   86.8564   10.8463 C.3     1  UNL1        0.2447
     30 C          60.3744   87.4929    9.6029 C.ar    1  UNL1        0.0714
     31 C          60.4369   88.9514    9.2584 C.ar    1  UNL1        0.1053
     32 N          59.7702   89.1426    7.9284 N.ar    1  UNL1       -0.2350
     33 C          59.2956   87.8021    7.4509 C.ar    1  UNL1        0.1343
     34 S          59.6690   86.7826    8.4858 S.2     1  UNL1       -0.0652
     35 C          63.0603   83.7596   15.0887 C.3     1  UNL1        0.0485
     36 C          62.7958   82.4783   14.3550 C.ar    1  UNL1       -0.0204
     37 C          61.4856   81.7697   14.5316 C.ar    1  UNL1       -0.0042
     38 C          61.2211   80.4883   13.7979 C.ar    1  UNL1       -0.0003
     39 C          62.2668   79.9157   12.8876 C.ar    1  UNL1       -0.0000
     40 C          63.5770   80.6244   12.7110 C.ar    1  UNL1       -0.0003
     41 C          63.8415   81.9057   13.4447 C.ar    1  UNL1       -0.0042
@<TRIPOS>BOND
     1    21    22    1
     2    22     5    1
     3     5     4    1
     4     4     1    1
     5     1     2    1
     6     1    23    1
     7    23    35    1
     8    35    36    1
     9    36    37   ar
    10    37    38   ar
    11    38    39   ar
    12    39    40   ar
    13    40    41   ar
    14    23    24    1
    15    24    25   am
    16    25    26    2
    17    25    28    1
    18    28    29    1
    19    29    30    1
    20    30    31   ar
    21    31    32   ar
    22    32    33   ar
    23    33    34   ar
    24     5     6   am
    25     6     7    2
    26     6     8    1
    27     8     9   ar
    28     9    10   ar
    29    10    11   ar
    30    11    12   ar
    31    12    13   ar
    32    13    17    1
    33    17    18    1
    34    17    19    1
    35    19    20    1
    36    13    14   ar
    37    14    15   ar
    38    15    16   ar
    39    41    36   ar
    40    34    30   ar
    41    16     8   ar
    42    15    11   ar
    43     2     3    1
    44    24    27    1
@<TRIPOS>MOLECULE
*****
 41 44 0 0 0
SMALL
GASTEIGER

@<TRIPOS>ATOM
      1 C          62.7558   89.7823   12.8513 C.3     1  UNL1        0.1484
      2 O          61.4329   89.9821   13.5294 O.3     1  UNL1       -0.3810
      3 H          60.7331   89.5662   13.0019 H       1  UNL1        0.2105
      4 C          62.8284   89.0305   11.5553 C.3     1  UNL1        0.1245
      5 N          61.7535   89.2079   10.5241 N.am    1  UNL1       -0.2735
      6 C          61.2939   88.0347    9.7103 C.2     1  UNL1        0.2492
      7 O          60.2191   88.2121    8.6792 O.2     1  UNL1       -0.2699
      8 C          61.9092   86.6840    9.9276 C.ar    1  UNL1        0.0567
      9 C          62.7074   86.0387    8.8338 C.ar    1  UNL1        0.0063
     10 C          63.3226   84.6881    9.0511 C.ar    1  UNL1        0.0225
     11 C          63.1397   83.9828   10.3622 C.ar    1  UNL1        0.1202
     12 N          63.6238   82.6544   10.8634 N.ar    1  UNL1       -0.1946
     13 C          63.1247   82.4787   12.2670 C.ar    1  UNL1        0.2924
     14 O          62.3323   83.6985   12.6332 O.2     1  UNL1       -0.4237
     15 C          62.3415   84.6281   11.4560 C.ar    1  UNL1        0.1662
     16 C          61.7263   85.9787   11.2387 C.ar    1  UNL1        0.0437
     17 N          63.3743   81.2917   13.1495 N.pl3   1  UNL1       -0.2619
     18 C          64.7116   81.1124   13.8049 C.3     1  UNL1        0.1166
     19 C          62.2867   80.2840   13.3765 C.3     1  UNL1        0.0952
     20 C          61.0041   80.7001   14.0335 C.3     1  UNL1        0.0233
     21 C          59.7726   90.8570   10.8509 C.3     1  UNL1        0.0233
     22 C          61.1382   90.5586   10.3069 C.3     1  UNL1        0.0939
     23 C          64.0063   90.3343   13.4691 C.3     1  UNL1        0.1075
     24 N          64.9413   91.1725   12.6486 N.am    1  UNL1       -0.2695
     25 C          65.6914   92.3035   13.2876 C.2     1  UNL1        0.4020
     26 O          65.5065   92.5962   14.7471 O.2     1  UNL1       -0.2264
     27 H          65.0627   90.9804   11.6906 H       1  UNL1        0.1528
     28 O          66.6264   93.1417   12.4671 O.3     1  UNL1       -0.4291
     29 C          66.2001   94.5017   11.9995 C.3     1  UNL1        0.2447
     30 C          66.6521   95.0110   10.6629 C.ar    1  UNL1        0.0714
     31 C          66.7433   96.4510   10.2530 C.ar    1  UNL1        0.1053
     32 N          67.2398   96.4998    8.8384 N.ar    1  UNL1       -0.2350
     33 C          67.4555   95.0898    8.3741 C.ar    1  UNL1        0.1343
     34 S          67.0923   94.1697    9.5017 S.2     1  UNL1       -0.0652
     35 C          64.3217   90.0482   14.9073 C.3     1  UNL1        0.0485
     36 C          63.9826   88.7117   15.4979 C.ar    1  UNL1       -0.0204
     37 C          64.4589   87.4548   14.8320 C.ar    1  UNL1       -0.0042
     38 C          64.1197   86.1183   15.4227 C.ar    1  UNL1       -0.0003
     39 C          63.3044   86.0388   16.6792 C.ar    1  UNL1       -0.0000
     40 C          62.8282   87.2957   17.3451 C.ar    1  UNL1       -0.0003
     41 C          63.1673   88.6321   16.7545 C.ar    1  UNL1       -0.0042
@<TRIPOS>BOND
     1    21    22    1
     2    22     5    1
     3     5     4    1
     4     4     1    1
     5     1     2    1
     6     1    23    1
     7    23    35    1
     8    35    36    1
     9    36    37   ar
    10    37    38   ar
    11    38    39   ar
    12    39    40   ar
    13    40    41   ar
    14    23    24    1
    15    24    25   am
    16    25    26    2
    17    25    28    1
    18    28    29    1
    19    29    30    1
    20    30    31   ar
    21    31    32   ar
    22    32    33   ar
    23    33    34   ar
    24     5     6   am
    25     6     7    2
    26     6     8    1
    27     8     9   ar
    28     9    10   ar
    29    10    11   ar
    30    11    12   ar
    31    12    13   ar
    32    13    17    1
    33    17    18    1
    34    17    19    1
    35    19    20    1
    36    13    14   ar
    37    14    15   ar
    38    15    16   ar
    39    41    36   ar
    40    34    30   ar
    41    16     8   ar
    42    15    11   ar
    43     2     3    1
    44    24    27    1
@<TRIPOS>MOLECULE
*****
 41 44 0 0 0
SMALL
GASTEIGER

@<TRIPOS>ATOM
      1 C          63.4643   88.0301   13.0281 C.3     1  UNL1        0.1484
      2 O          63.1372   89.0952   12.0238 O.3     1  UNL1       -0.3810
      3 H          63.5102   89.9413   12.3167 H       1  UNL1        0.2105
      4 C          64.2580   88.3733   14.2538 C.3     1  UNL1        0.1245
      5 N          63.6461   89.2188   15.3312 N.am    1  UNL1       -0.2735
      6 C          64.0206   90.6661   15.4524 C.2     1  UNL1        0.2492
      7 O          63.4087   91.5116   16.5298 O.2     1  UNL1       -0.2699
      8 C          65.0073   91.2682   14.4962 C.ar    1  UNL1        0.0567
      9 C          66.4787   91.1430   14.7590 C.ar    1  UNL1        0.0063
     10 C          67.4652   91.7450   13.8028 C.ar    1  UNL1        0.0225
     11 C          66.9803   92.4722   12.5838 C.ar    1  UNL1        0.1202
     12 N          67.7105   93.1634   11.4706 N.ar    1  UNL1       -0.1946
     13 C          66.6903   93.7158   10.5198 C.ar    1  UNL1        0.2924
     14 O          65.3296   93.3660   11.0454 O.2     1  UNL1       -0.4237
     15 C          65.5088   92.5974   12.3210 C.ar    1  UNL1        0.1662
     16 C          64.5223   91.9954   13.2772 C.ar    1  UNL1        0.0437
     17 N          66.9799   94.4832    9.2639 N.pl3   1  UNL1       -0.2619
     18 C          67.8912   93.9027    8.2235 C.3     1  UNL1        0.1166
     19 C          66.3581   95.8312    9.0485 C.3     1  UNL1        0.0952
     20 C          66.9259   96.7631    8.0194 C.3     1  UNL1        0.0233
     21 C          63.0601   87.4528   17.1445 C.3     1  UNL1        0.0233
     22 C          62.6595   88.6167   16.2874 C.3     1  UNL1        0.0939
     23 C          62.9979   86.6218   12.8067 C.3     1  UNL1        0.1075
     24 N          63.7945   85.4734   13.3515 N.am    1  UNL1       -0.2695
     25 C          63.2149   84.6012   14.4253 C.2     1  UNL1        0.4020
     26 O          61.8386   84.8772   14.9544 O.2     1  UNL1       -0.2264
     27 H          64.6977   85.2923   13.0042 H       1  UNL1        0.1528
     28 O          64.0114   83.4529   14.9701 O.3     1  UNL1       -0.4291
     29 C          63.8938   82.0947   14.3445 C.3     1  UNL1        0.2447
     30 C          63.8551   81.9576   12.8512 C.ar    1  UNL1        0.0714
     31 C          64.8091   82.5915   11.8826 C.ar    1  UNL1        0.1053
     32 N          64.3993   82.1883   10.4972 N.ar    1  UNL1       -0.2350
     33 C          63.1919   81.3053   10.6095 C.ar    1  UNL1        0.1343
     34 S          62.8556   81.1628   12.0643 S.2     1  UNL1       -0.0652
     35 C          61.7348   86.3618   12.0405 C.3     1  UNL1        0.0485
     36 C          61.7962   86.0672   10.5710 C.ar    1  UNL1       -0.0204
     37 C          60.7416   86.6097    9.6526 C.ar    1  UNL1       -0.0042
     38 C          60.8030   86.3151    8.1831 C.ar    1  UNL1       -0.0003
     39 C          61.9190   85.4781    7.6320 C.ar    1  UNL1       -0.0000
     40 C          62.9737   84.9356    8.5504 C.ar    1  UNL1       -0.0003
     41 C          62.9123   85.2302   10.0198 C.ar    1  UNL1       -0.0042
@<TRIPOS>BOND
     1    21    22    1
     2    22     5    1
     3     5     4    1
     4     4     1    1
     5     1     2    1
     6     1    23    1
     7    23    35    1
     8    35    36    1
     9    36    37   ar
    10    37    38   ar
    11    38    39   ar
    12    39    40   ar
    13    40    41   ar
    14    23    24    1
    15    24    25   am
    16    25    26    2
    17    25    28    1
    18    28    29    1
    19    29    30    1
    20    30    31   ar
    21    31    32   ar
    22    32    33   ar
    23    33    34   ar
    24     5     6   am
    25     6     7    2
    26     6     8    1
    27     8     9   ar
    28     9    10   ar
    29    10    11   ar
    30    11    12   ar
    31    12    13   ar
    32    13    17    1
    33    17    18    1
    34    17    19    1
    35    19    20    1
    36    13    14   ar
    37    14    15   ar
    38    15    16   ar
    39    41    36   ar
    40    34    30   ar
    41    16     8   ar
    42    15    11   ar
    43     2     3    1
    44    24    27    1
@<TRIPOS>MOLECULE
*****
 41 44 0 0 0
SMALL
GASTEIGER

@<TRIPOS>ATOM
      1 C          63.9049   88.4381   15.0287 C.3     1  UNL1        0.1484
      2 O          63.5072   88.9552   16.3794 O.3     1  UNL1       -0.3810
      3 H          63.6376   88.2599   17.0431 H       1  UNL1        0.2105
      4 C          64.4107   87.0335   14.8825 C.3     1  UNL1        0.1245
      5 N          63.8113   85.9311   15.7043 N.am    1  UNL1       -0.2735
      6 C          63.2503   84.7137   15.0311 C.2     1  UNL1        0.2492
      7 O          62.6508   83.6113   15.8529 O.2     1  UNL1       -0.2699
      8 C          63.2887   84.5987   13.5359 C.ar    1  UNL1        0.0567
      9 C          64.3764   83.8073   12.8723 C.ar    1  UNL1        0.0063
     10 C          64.4148   83.6923   11.3772 C.ar    1  UNL1        0.0225
     11 C          63.3655   84.3688   10.5458 C.ar    1  UNL1        0.1202
     12 N          63.1466   84.4325    9.0632 N.ar    1  UNL1       -0.1946
     13 C          61.9235   85.2634    8.8105 C.ar    1  UNL1        0.2924
     14 O          61.3866   85.7132   10.1370 O.2     1  UNL1       -0.4237
     15 C          62.2778   85.1603   11.2094 C.ar    1  UNL1        0.1662
     16 C          62.2394   85.2752   12.7045 C.ar    1  UNL1        0.0437
     17 N          61.3398   85.5876    7.4673 N.pl3   1  UNL1       -0.2619
     18 C          61.6851   84.7439    6.2761 C.3     1  UNL1        0.1166
     19 C          60.4110   86.7555    7.3153 C.3     1  UNL1        0.0952
     20 C          58.9870   86.6458    7.7735 C.3     1  UNL1        0.0233
     21 C          62.4969   86.4274   17.8898 C.3     1  UNL1        0.0233
     22 C          63.7728   86.0461   17.1995 C.3     1  UNL1        0.0939
     23 C          63.7967   89.3254   13.8242 C.3     1  UNL1        0.1075
     24 N          63.9450   90.8109   13.9712 N.am    1  UNL1       -0.2695
     25 C          65.2748   91.3990   14.3398 C.2     1  UNL1        0.4020
     26 O          66.4562   90.5016   14.5614 O.2     1  UNL1       -0.2264
     27 H          63.1696   91.3998   13.8258 H       1  UNL1        0.1528
     28 O          65.4231   92.8843   14.4869 O.3     1  UNL1       -0.4291
     29 C          66.5437   93.5987   13.7912 C.3     1  UNL1        0.2447
     30 C          66.4662   93.8582   12.3158 C.ar    1  UNL1        0.0714
     31 C          66.1542   95.1743   11.6672 C.ar    1  UNL1        0.1053
     32 N          66.1823   94.9767   10.1806 N.ar    1  UNL1       -0.2350
     33 C          66.5117   93.5385    9.9103 C.ar    1  UNL1        0.1343
     34 S          66.6871   92.8472   11.2299 S.2     1  UNL1       -0.0652
     35 C          63.5402   88.7274   12.4727 C.3     1  UNL1        0.0485
     36 C          62.3390   89.1514   11.6807 C.ar    1  UNL1       -0.0204
     37 C          62.3599   89.0668   10.1833 C.ar    1  UNL1       -0.0042
     38 C          61.1585   89.4908    9.3913 C.ar    1  UNL1       -0.0003
     39 C          59.9364   89.9994   10.0968 C.ar    1  UNL1       -0.0000
     40 C          59.9156   90.0840   11.5942 C.ar    1  UNL1       -0.0003
     41 C          61.1168   89.6600   12.3862 C.ar    1  UNL1       -0.0042
@<TRIPOS>BOND
     1    21    22    1
     2    22     5    1
     3     5     4    1
     4     4     1    1
     5     1     2    1
     6     1    23    1
     7    23    35    1
     8    35    36    1
     9    36    37   ar
    10    37    38   ar
    11    38    39   ar
    12    39    40   ar
    13    40    41   ar
    14    23    24    1
    15    24    25   am
    16    25    26    2
    17    25    28    1
    18    28    29    1
    19    29    30    1
    20    30    31   ar
    21    31    32   ar
    22    32    33   ar
    23    33    34   ar
    24     5     6   am
    25     6     7    2
    26     6     8    1
    27     8     9   ar
    28     9    10   ar
    29    10    11   ar
    30    11    12   ar
    31    12    13   ar
    32    13    17    1
    33    17    18    1
    34    17    19    1
    35    19    20    1
    36    13    14   ar
    37    14    15   ar
    38    15    16   ar
    39    41    36   ar
    40    34    30   ar
    41    16     8   ar
    42    15    11   ar
    43     2     3    1
    44    24    27    1
@<TRIPOS>MOLECULE
*****
 41 44 0 0 0
SMALL
GASTEIGER

@<TRIPOS>ATOM
      1 C          62.3289   85.5512   10.4098 C.3     1  UNL1        0.1484
      2 O          63.0565   85.5217    9.0985 O.3     1  UNL1       -0.3810
      3 H          62.6227   86.1244    8.4744 H       1  UNL1        0.2105
      4 C          61.1260   86.4311   10.5806 C.3     1  UNL1        0.1245
      5 N          60.5322   87.1283    9.3926 N.am    1  UNL1       -0.2735
      6 C          60.7270   88.6049    9.2149 C.2     1  UNL1        0.2492
      7 O          60.1331   89.3022    8.0270 O.2     1  UNL1       -0.2699
      8 C          61.5156   89.3844   10.2252 C.ar    1  UNL1        0.0567
      9 C          61.1820   89.2751   11.6835 C.ar    1  UNL1        0.0063
     10 C          61.9706   90.0545   12.6937 C.ar    1  UNL1        0.0225
     11 C          63.0929   90.9432   12.2456 C.ar    1  UNL1        0.1202
     12 N          64.0391   91.8254   13.0050 N.ar    1  UNL1       -0.1946
     13 C          64.9575   92.4798   12.0159 C.ar    1  UNL1        0.2924
     14 O          64.5789   92.0020   10.6453 O.2     1  UNL1       -0.4237
     15 C          63.4265   91.0524   10.7873 C.ar    1  UNL1        0.1662
     16 C          62.6379   90.2730    9.7771 C.ar    1  UNL1        0.0437
     17 N          66.0608   93.4428   12.3404 N.pl3   1  UNL1       -0.2619
     18 C          66.3773   94.5660   11.3979 C.3     1  UNL1        0.1166
     19 C          66.8476   93.2827   13.6074 C.3     1  UNL1        0.0952
     20 C          67.5647   91.9953   13.8872 C.3     1  UNL1        0.0233
     21 C          60.4473   85.6594    7.2513 C.3     1  UNL1        0.0233
     22 C          59.7435   86.3489    8.3823 C.3     1  UNL1        0.0939
     23 C          62.8040   84.7008   11.5505 C.3     1  UNL1        0.1075
     24 N          62.2656   84.9298   12.9318 N.am    1  UNL1       -0.2695
     25 C          63.1700   84.7958   14.1209 C.2     1  UNL1        0.4020
     26 O          64.6127   84.4327   13.9289 O.2     1  UNL1       -0.2264
     27 H          61.3188   85.1681   13.0578 H       1  UNL1        0.1528
     28 O          62.6317   85.0248   15.5021 O.3     1  UNL1       -0.4291
     29 C          63.3640   85.9248   16.4528 C.3     1  UNL1        0.2447
     30 C          63.5871   87.3657   16.1002 C.ar    1  UNL1        0.0714
     31 C          64.4162   87.8759   14.9590 C.ar    1  UNL1        0.1053
     32 N          64.3619   89.3748   14.9804 N.ar    1  UNL1       -0.2350
     33 C          63.4992   89.7909   16.1348 C.ar    1  UNL1        0.1343
     34 S          63.0204   88.5492   16.8269 S.2     1  UNL1       -0.0652
     35 C          63.8174   83.6215   11.3100 C.3     1  UNL1        0.0485
     36 C          63.4069   82.1801   11.3716 C.ar    1  UNL1       -0.0204
     37 C          63.3795   81.3539   10.1200 C.ar    1  UNL1       -0.0042
     38 C          62.9690   79.9124   10.1817 C.ar    1  UNL1       -0.0003
     39 C          62.5859   79.2972   11.4950 C.ar    1  UNL1       -0.0000
     40 C          62.6133   80.1235   12.7466 C.ar    1  UNL1       -0.0003
     41 C          63.0238   81.5649   12.6850 C.ar    1  UNL1       -0.0042
@<TRIPOS>BOND
     1    21    22    1
     2    22     5    1
     3     5     4    1
     4     4     1    1
     5     1     2    1
     6     1    23    1
     7    23    35    1
     8    35    36    1
     9    36    37   ar
    10    37    38   ar
    11    38    39   ar
    12    39    40   ar
    13    40    41   ar
    14    23    24    1
    15    24    25   am
    16    25    26    2
    17    25    28    1
    18    28    29    1
    19    29    30    1
    20    30    31   ar
    21    31    32   ar
    22    32    33   ar
    23    33    34   ar
    24     5     6   am
    25     6     7    2
    26     6     8    1
    27     8     9   ar
    28     9    10   ar
    29    10    11   ar
    30    11    12   ar
    31    12    13   ar
    32    13    17    1
    33    17    18    1
    34    17    19    1
    35    19    20    1
    36    13    14   ar
    37    14    15   ar
    38    15    16   ar
    39    41    36   ar
    40    34    30   ar
    41    16     8   ar
    42    15    11   ar
    43     2     3    1
    44    24    27    1
@<TRIPOS>MOLECULE
*****
 41 44 0 0 0
SMALL
GASTEIGER

@<TRIPOS>ATOM
      1 C          62.7106   89.5954   12.9669 C.3     1  UNL1        0.1484
      2 O          61.3641   89.9327   13.5353 O.3     1  UNL1       -0.3810
      3 H          60.6711   89.6155   12.9352 H       1  UNL1        0.2105
      4 C          62.8118   88.8728   11.6563 C.3     1  UNL1        0.1245
      5 N          61.7557   89.0674   10.6091 N.am    1  UNL1       -0.2735
      6 C          61.3039   87.9058    9.7746 C.2     1  UNL1        0.2492
      7 O          60.2477   88.1003    8.7274 O.2     1  UNL1       -0.2699
      8 C          61.9083   86.5494    9.9873 C.ar    1  UNL1        0.0567
      9 C          62.6845   85.8929    8.8844 C.ar    1  UNL1        0.0063
     10 C          63.2888   84.5366    9.0972 C.ar    1  UNL1        0.0225
     11 C          63.1169   83.8369   10.4128 C.ar    1  UNL1        0.1202
     12 N          63.5943   82.5050   10.9112 N.ar    1  UNL1       -0.1946
     13 C          63.1130   82.3385   12.3221 C.ar    1  UNL1        0.2924
     14 O          62.3383   83.5674   12.6957 O.2     1  UNL1       -0.4237
     15 C          62.3407   84.4935   11.5157 C.ar    1  UNL1        0.1662
     16 C          61.7364   85.8497   11.3029 C.ar    1  UNL1        0.0437
     17 N          63.3627   81.1515   13.2046 N.pl3   1  UNL1       -0.2619
     18 C          64.7202   80.9358   13.8052 C.3     1  UNL1        0.1166
     19 C          62.2549   80.1802   13.4863 C.3     1  UNL1        0.0952
     20 C          60.9330   80.6765   13.9924 C.3     1  UNL1        0.0233
     21 C          59.7486   90.6994   10.8506 C.3     1  UNL1        0.0233
     22 C          61.1513   90.4238   10.3963 C.3     1  UNL1        0.0939
     23 C          63.9559   89.9806   13.7091 C.3     1  UNL1        0.1075
     24 N          64.3912   91.4155   13.7497 N.am    1  UNL1       -0.2695
     25 C          64.8546   92.0945   12.4950 C.2     1  UNL1        0.4020
     26 O          64.8826   91.3385   11.1997 O.2     1  UNL1       -0.2264
     27 H          64.3728   91.9117   14.5999 H       1  UNL1        0.1528
     28 O          65.2899   93.5293   12.5355 O.3     1  UNL1       -0.4291
     29 C          66.6496   93.8861   13.0590 C.3     1  UNL1        0.2447
     30 C          67.1374   93.2908   14.3466 C.ar    1  UNL1        0.0714
     31 C          66.3407   93.1477   15.6095 C.ar    1  UNL1        0.1053
     32 N          67.2185   92.5027   16.6407 N.ar    1  UNL1       -0.2350
     33 C          68.5577   92.2472   16.0151 C.ar    1  UNL1        0.1343
     34 S          68.5076   92.7343   14.5973 S.2     1  UNL1       -0.0652
     35 C          64.7658   88.9310   14.4107 C.3     1  UNL1        0.0485
     36 C          64.0917   87.9468   15.3200 C.ar    1  UNL1       -0.0204
     37 C          64.1829   86.4772   15.0341 C.ar    1  UNL1       -0.0042
     38 C          63.5087   85.4930   15.9435 C.ar    1  UNL1       -0.0003
     39 C          62.7433   85.9785   17.1387 C.ar    1  UNL1       -0.0000
     40 C          62.6521   87.4482   17.4245 C.ar    1  UNL1       -0.0003
     41 C          63.3262   88.4323   16.5152 C.ar    1  UNL1       -0.0042
@<TRIPOS>BOND
     1    21    22    1
     2    22     5    1
     3     5     4    1
     4     4     1    1
     5     1     2    1
     6     1    23    1
     7    23    35    1
     8    35    36    1
     9    36    37   ar
    10    37    38   ar
    11    38    39   ar
    12    39    40   ar
    13    40    41   ar
    14    23    24    1
    15    24    25   am
    16    25    26    2
    17    25    28    1
    18    28    29    1
    19    29    30    1
    20    30    31   ar
    21    31    32   ar
    22    32    33   ar
    23    33    34   ar
    24     5     6   am
    25     6     7    2
    26     6     8    1
    27     8     9   ar
    28     9    10   ar
    29    10    11   ar
    30    11    12   ar
    31    12    13   ar
    32    13    17    1
    33    17    18    1
    34    17    19    1
    35    19    20    1
    36    13    14   ar
    37    14    15   ar
    38    15    16   ar
    39    41    36   ar
    40    34    30   ar
    41    16     8   ar
    42    15    11   ar
    43     2     3    1
    44    24    27    1
@<TRIPOS>MOLECULE
*****
 41 44 0 0 0
SMALL
GASTEIGER

@<TRIPOS>ATOM
      1 C          66.9976   92.0499   13.0602 C.3     1  UNL1        0.1484
      2 O          68.3888   92.0214   12.5001 O.3     1  UNL1       -0.3810
      3 H          68.8979   91.3192   12.9344 H       1  UNL1        0.2105
      4 C          66.5992   91.0754   14.1287 C.3     1  UNL1        0.1245
      5 N          65.6870   91.5097   15.2375 N.am    1  UNL1       -0.2735
      6 C          64.4496   90.7191   15.5438 C.2     1  UNL1        0.2492
      7 O          63.5375   91.1534   16.6525 O.2     1  UNL1       -0.2699
      8 C          64.1243   89.4943   14.7413 C.ar    1  UNL1        0.0567
      9 C          63.6190   89.6309   13.3356 C.ar    1  UNL1        0.0063
     10 C          63.2937   88.4061   12.5332 C.ar    1  UNL1        0.0225
     11 C          63.4738   87.0446   13.1365 C.ar    1  UNL1        0.1202
     12 N          63.2379   85.6666   12.5926 N.ar    1  UNL1       -0.1946
     13 C          63.5974   84.6784   13.6623 C.ar    1  UNL1        0.2924
     14 O          64.0555   85.4455   14.8671 O.2     1  UNL1       -0.4237
     15 C          63.9791   86.9079   14.5421 C.ar    1  UNL1        0.1662
     16 C          64.3044   88.1328   15.3445 C.ar    1  UNL1        0.0437
     17 N          63.5135   83.1851   13.5473 N.pl3   1  UNL1       -0.2619
     18 C          62.5360   82.4216   14.3909 C.3     1  UNL1        0.1166
     19 C          64.4071   82.4553   12.5887 C.3     1  UNL1        0.0952
     20 C          64.1677   82.5607   11.1118 C.3     1  UNL1        0.0233
     21 C          67.4418   93.1433   16.2386 C.3     1  UNL1        0.0233
     22 C          66.0123   92.7346   16.0400 C.3     1  UNL1        0.0939
     23 C          66.0049   93.0529   12.5519 C.3     1  UNL1        0.1075
     24 N          64.5987   92.6284   12.2472 N.am    1  UNL1       -0.2695
     25 C          64.2700   92.0237   10.9144 C.2     1  UNL1        0.4020
     26 O          65.3473   91.8436    9.8863 O.2     1  UNL1       -0.2264
     27 H          63.8917   92.7466   12.9220 H       1  UNL1        0.1528
     28 O          62.8640   91.5992   10.6098 O.3     1  UNL1       -0.4291
     29 C          62.6121   90.4595    9.6677 C.3     1  UNL1        0.2447
     30 C          61.5304   89.4642    9.9669 C.ar    1  UNL1        0.0714
     31 C          61.4570   88.0589    9.4473 C.ar    1  UNL1        0.1053
     32 N          60.2135   87.4257    9.9974 N.ar    1  UNL1       -0.2350
     33 C          59.5183   88.4396   10.8569 C.ar    1  UNL1        0.1343
     34 S          60.3322   89.6994   10.8381 S.2     1  UNL1       -0.0652
     35 C          66.4181   94.4804   12.3482 C.3     1  UNL1        0.0485
     36 C          66.4901   95.0498   10.9624 C.ar    1  UNL1       -0.0204
     37 C          65.7133   96.2859   10.6181 C.ar    1  UNL1       -0.0042
     38 C          65.7853   96.8554    9.2322 C.ar    1  UNL1       -0.0003
     39 C          66.6342   96.1887    8.1907 C.ar    1  UNL1       -0.0000
     40 C          67.4111   94.9526    8.5349 C.ar    1  UNL1       -0.0003
     41 C          67.3391   94.3832    9.9207 C.ar    1  UNL1       -0.0042
@<TRIPOS>BOND
     1    21    22    1
     2    22     5    1
     3     5     4    1
     4     4     1    1
     5     1     2    1
     6     1    23    1
     7    23    35    1
     8    35    36    1
     9    36    37   ar
    10    37    38   ar
    11    38    39   ar
    12    39    40   ar
    13    40    41   ar
    14    23    24    1
    15    24    25   am
    16    25    26    2
    17    25    28    1
    18    28    29    1
    19    29    30    1
    20    30    31   ar
    21    31    32   ar
    22    32    33   ar
    23    33    34   ar
    24     5     6   am
    25     6     7    2
    26     6     8    1
    27     8     9   ar
    28     9    10   ar
    29    10    11   ar
    30    11    12   ar
    31    12    13   ar
    32    13    17    1
    33    17    18    1
    34    17    19    1
    35    19    20    1
    36    13    14   ar
    37    14    15   ar
    38    15    16   ar
    39    41    36   ar
    40    34    30   ar
    41    16     8   ar
    42    15    11   ar
    43     2     3    1
    44    24    27    1
@<TRIPOS>MOLECULE
*****
 41 44 0 0 0
SMALL
GASTEIGER

@<TRIPOS>ATOM
      1 C          62.5359   86.0776    9.4525 C.3     1  UNL1        0.1484
      2 O          62.8524   85.5340    8.0908 O.3     1  UNL1       -0.3810
      3 H          62.9754   86.2690    7.4699 H       1  UNL1        0.2105
      4 C          62.4555   87.5598    9.6683 C.3     1  UNL1        0.1245
      5 N          61.1245   88.2510    9.6388 N.am    1  UNL1       -0.2735
      6 C          60.9897   89.6423   10.1829 C.2     1  UNL1        0.2492
      7 O          59.6587   90.3334   10.1533 O.2     1  UNL1       -0.2699
      8 C          62.1858   90.3425   10.7564 C.ar    1  UNL1        0.0567
      9 C          63.0294   91.2234    9.8833 C.ar    1  UNL1        0.0063
     10 C          64.2255   91.9236   10.4569 C.ar    1  UNL1        0.0225
     11 C          64.5780   91.7430   11.9036 C.ar    1  UNL1        0.1202
     12 N          65.6891   92.3005   12.7432 N.ar    1  UNL1       -0.1946
     13 C          65.5321   91.7642   14.1352 C.ar    1  UNL1        0.2924
     14 O          64.3241   90.8752   14.1560 O.2     1  UNL1       -0.4237
     15 C          63.7344   90.8621   12.7768 C.ar    1  UNL1        0.1662
     16 C          62.5384   90.1619   12.2032 C.ar    1  UNL1        0.0437
     17 N          66.4262   92.0642   15.3017 N.pl3   1  UNL1       -0.2619
     18 C          65.8379   92.5582   16.5900 C.3     1  UNL1        0.1166
     19 C          67.9086   91.8701   15.1798 C.3     1  UNL1        0.0952
     20 C          68.8474   92.7927   15.8992 C.3     1  UNL1        0.0233
     21 C          59.5230   87.8015    7.6430 C.3     1  UNL1        0.0233
     22 C          59.9284   87.5507    9.0652 C.3     1  UNL1        0.0939
     23 C          62.2997   85.1389   10.5985 C.3     1  UNL1        0.1075
     24 N          62.3568   83.6563   10.3776 N.am    1  UNL1       -0.2695
     25 C          63.6827   82.9575   10.3179 C.2     1  UNL1        0.4020
     26 O          64.9515   83.7413   10.4792 O.2     1  UNL1       -0.2264
     27 H          61.5241   83.1420   10.2717 H       1  UNL1        0.1528
     28 O          63.7399   81.4750   10.0970 O.3     1  UNL1       -0.4291
     29 C          63.0484   80.5473   11.0516 C.3     1  UNL1        0.2447
     30 C          62.8766   80.9414   12.4887 C.ar    1  UNL1        0.0714
     31 C          63.9686   81.0416   13.5121 C.ar    1  UNL1        0.1053
     32 N          63.3496   81.4666   14.8106 N.ar    1  UNL1       -0.2350
     33 C          61.8748   81.6292   14.5897 C.ar    1  UNL1        0.1343
     34 S          61.5825   81.3046   13.1547 S.2     1  UNL1       -0.0652
     35 C          62.0064   85.6828   11.9652 C.3     1  UNL1        0.0485
     36 C          63.1071   85.8010   12.9774 C.ar    1  UNL1       -0.0204
     37 C          63.8269   84.5726   13.4495 C.ar    1  UNL1       -0.0042
     38 C          64.9276   84.6908   14.4618 C.ar    1  UNL1       -0.0003
     39 C          65.3085   86.0373   15.0018 C.ar    1  UNL1       -0.0000
     40 C          64.5887   87.2657   14.5297 C.ar    1  UNL1       -0.0003
     41 C          63.4880   87.1476   13.5175 C.ar    1  UNL1       -0.0042
@<TRIPOS>BOND
     1    21    22    1
     2    22     5    1
     3     5     4    1
     4     4     1    1
     5     1     2    1
     6     1    23    1
     7    23    35    1
     8    35    36    1
     9    36    37   ar
    10    37    38   ar
    11    38    39   ar
    12    39    40   ar
    13    40    41   ar
    14    23    24    1
    15    24    25   am
    16    25    26    2
    17    25    28    1
    18    28    29    1
    19    29    30    1
    20    30    31   ar
    21    31    32   ar
    22    32    33   ar
    23    33    34   ar
    24     5     6   am
    25     6     7    2
    26     6     8    1
    27     8     9   ar
    28     9    10   ar
    29    10    11   ar
    30    11    12   ar
    31    12    13   ar
    32    13    17    1
    33    17    18    1
    34    17    19    1
    35    19    20    1
    36    13    14   ar
    37    14    15   ar
    38    15    16   ar
    39    41    36   ar
    40    34    30   ar
    41    16     8   ar
    42    15    11   ar
    43     2     3    1
    44    24    27    1
@<TRIPOS>MOLECULE
*****
 41 44 0 0 0
SMALL
GASTEIGER

@<TRIPOS>ATOM
      1 C          62.5227   85.9902   10.4585 C.3     1  UNL1        0.1484
      2 O          62.6341   85.8099    8.9736 O.3     1  UNL1       -0.3810
      3 H          62.4563   86.6546    8.5311 H       1  UNL1        0.2105
      4 C          62.1803   87.3355   11.0271 C.3     1  UNL1        0.1245
      5 N          61.0050   88.0987   10.4922 N.am    1  UNL1       -0.2735
      6 C          61.0461   89.5971   10.4369 C.2     1  UNL1        0.2492
      7 O          59.8707   90.3603    9.9020 O.2     1  UNL1       -0.2699
      8 C          62.2625   90.3323   10.9164 C.ar    1  UNL1        0.0567
      9 C          63.0592   91.1685    9.9593 C.ar    1  UNL1        0.0063
     10 C          64.2756   91.9037   10.4389 C.ar    1  UNL1        0.0225
     11 C          64.6951   91.8027   11.8755 C.ar    1  UNL1        0.1202
     12 N          65.8397   92.4094   12.6318 N.ar    1  UNL1       -0.1946
     13 C          65.7502   91.9481   14.0563 C.ar    1  UNL1        0.2924
     14 O          64.5504   91.0564   14.1803 O.2     1  UNL1       -0.4237
     15 C          63.8984   90.9665   12.8325 C.ar    1  UNL1        0.1662
     16 C          62.6820   90.2314   12.3530 C.ar    1  UNL1        0.0437
     17 N          66.6948   92.3143   15.1627 N.pl3   1  UNL1       -0.2619
     18 C          66.1713   92.5495   16.5486 C.3     1  UNL1        0.1166
     19 C          68.1626   92.4453   14.8830 C.3     1  UNL1        0.0952
     20 C          69.1259   92.6526   16.0140 C.3     1  UNL1        0.0233
     21 C          59.5480   87.1904    8.5423 C.3     1  UNL1        0.0233
     22 C          59.7886   87.3635   10.0127 C.3     1  UNL1        0.0939
     23 C          62.7537   84.8254   11.3749 C.3     1  UNL1        0.1075
     24 N          63.2986   85.0525   12.7539 N.am    1  UNL1       -0.2695
     25 C          64.5414   84.3387   13.1962 C.2     1  UNL1        0.4020
     26 O          65.2394   83.3976   12.2595 O.2     1  UNL1       -0.2264
     27 H          62.8405   85.6702   13.3687 H       1  UNL1        0.1528
     28 O          65.0863   84.5657   14.5751 O.3     1  UNL1       -0.4291
     29 C          64.1485   84.7524   15.7309 C.3     1  UNL1        0.2447
     30 C          63.7176   86.1321   16.1318 C.ar    1  UNL1        0.0714
     31 C          64.0340   87.4023   15.3993 C.ar    1  UNL1        0.1053
     32 N          63.4065   88.5391   16.1503 N.ar    1  UNL1       -0.2350
     33 C          62.7023   87.9714   17.3470 C.ar    1  UNL1        0.1343
     34 S          62.8945   86.4838   17.3355 S.2     1  UNL1       -0.0652
     35 C          62.4398   83.4335   10.9124 C.3     1  UNL1        0.0485
     36 C          62.3587   82.3132   11.9066 C.ar    1  UNL1       -0.0204
     37 C          62.8243   80.9387   11.5273 C.ar    1  UNL1       -0.0042
     38 C          62.7432   79.8184   12.5216 C.ar    1  UNL1       -0.0003
     39 C          62.1965   80.0727   13.8950 C.ar    1  UNL1       -0.0000
     40 C          61.7310   81.4473   14.2743 C.ar    1  UNL1       -0.0003
     41 C          61.8120   82.5675   13.2802 C.ar    1  UNL1       -0.0042
@<TRIPOS>BOND
     1    21    22    1
     2    22     5    1
     3     5     4    1
     4     4     1    1
     5     1     2    1
     6     1    23    1
     7    23    35    1
     8    35    36    1
     9    36    37   ar
    10    37    38   ar
    11    38    39   ar
    12    39    40   ar
    13    40    41   ar
    14    23    24    1
    15    24    25   am
    16    25    26    2
    17    25    28    1
    18    28    29    1
    19    29    30    1
    20    30    31   ar
    21    31    32   ar
    22    32    33   ar
    23    33    34   ar
    24     5     6   am
    25     6     7    2
    26     6     8    1
    27     8     9   ar
    28     9    10   ar
    29    10    11   ar
    30    11    12   ar
    31    12    13   ar
    32    13    17    1
    33    17    18    1
    34    17    19    1
    35    19    20    1
    36    13    14   ar
    37    14    15   ar
    38    15    16   ar
    39    41    36   ar
    40    34    30   ar
    41    16     8   ar
    42    15    11   ar
    43     2     3    1
    44    24    27    1
