@<TRIPOS>MOLECULE
*****
 23 24 0 0 0
SMALL
GASTEIGER

@<TRIPOS>ATOM
      1 C          63.3783   82.8099   11.8226 C.3     1  UNL1        0.1895
      2 C          63.0297   83.9689   10.9363 C.ar    1  UNL1        0.0172
      3 C          62.1944   85.0953   11.4685 C.ar    1  UNL1       -0.0008
      4 C          61.8459   86.2543   10.5823 C.ar    1  UNL1       -0.0002
      5 C          62.3326   86.2867    9.1639 C.ar    1  UNL1       -0.0000
      6 C          63.1680   85.1602    8.6316 C.ar    1  UNL1       -0.0002
      7 C          63.5166   84.0013    9.5178 C.ar    1  UNL1       -0.0008
      8 C          62.7682   81.4630   11.5705 C.3     1  UNL1        0.0653
      9 C          62.8648   80.3889   12.6130 C.3     1  UNL1        0.0727
     10 C          60.8287   80.8553   14.1580 C.3     1  UNL1        0.0859
     11 N          62.2999   80.6206   13.9831 N.3     1  UNL1       -0.2962
     12 H          62.5356   79.8002   14.5414 H       1  UNL1        0.1233
     13 O          64.3369   82.9979   12.9608 O.3     1  UNL1       -0.4747
     14 C          64.0407   84.0052   14.0323 C.ar    1  UNL1        0.1388
     15 C          64.9351   85.1961   14.2099 C.ar    1  UNL1        0.0369
     16 C          64.6389   86.2032   15.2813 C.ar    1  UNL1        0.0070
     17 C          63.4483   86.0194   16.1750 C.ar    1  UNL1        0.0716
     18 C          62.5540   84.8284   15.9974 C.ar    1  UNL1        0.0070
     19 C          62.8501   83.8213   14.9260 C.ar    1  UNL1        0.0369
     20 C          63.1522   87.0266   17.2465 C.3     1  UNL1        0.4186
     21 F          62.8560   88.0337   18.3179 F       1  UNL1       -0.1659
     22 F          63.6559   88.1229   16.3553 F       1  UNL1       -0.1659
     23 F          62.6484   85.9303   18.1377 F       1  UNL1       -0.1659
@<TRIPOS>BOND
     1    10    11    1
     2    11     9    1
     3     9     8    1
     4     8     1    1
     5     1    13    1
     6    13    14    1
     7    14    15   ar
     8    15    16   ar
     9    16    17   ar
    10    17    20    1
    11    20    21    1
    12    20    22    1
    13    20    23    1
    14    17    18   ar
    15    18    19   ar
    16     1     2    1
    17     2     3   ar
    18     3     4   ar
    19     4     5   ar
    20     5     6   ar
    21     6     7   ar
    22    19    14   ar
    23     7     2   ar
    24    11    12    1
@<TRIPOS>MOLECULE
*****
 23 24 0 0 0
SMALL
GASTEIGER

@<TRIPOS>ATOM
      1 C          66.2148   92.3700   12.7996 C.3     1  UNL1        0.1895
      2 C          66.7130   93.0254   11.5457 C.ar    1  UNL1        0.0172
      3 C          66.3722   94.4583   11.2620 C.ar    1  UNL1       -0.0008
      4 C          66.8704   95.1137   10.0081 C.ar    1  UNL1       -0.0002
      5 C          67.7094   94.3361    9.0379 C.ar    1  UNL1       -0.0000
      6 C          68.0503   92.9031    9.3216 C.ar    1  UNL1       -0.0002
      7 C          67.5521   92.2478   10.5755 C.ar    1  UNL1       -0.0008
      8 C          67.1898   91.8963   13.8366 C.3     1  UNL1        0.0653
      9 C          66.9344   92.1739   15.2884 C.3     1  UNL1        0.0727
     10 C          64.6511   92.1152   16.5266 C.3     1  UNL1        0.0859
     11 N          65.6673   92.8571   15.7097 N.3     1  UNL1       -0.2962
     12 H          65.9408   93.6759   16.2529 H       1  UNL1        0.1233
     13 O          64.7418   92.1883   13.0166 O.3     1  UNL1       -0.4747
     14 C          63.9823   91.1823   12.2033 C.ar    1  UNL1        0.1388
     15 C          63.5754   91.5082   10.7969 C.ar    1  UNL1        0.0369
     16 C          62.8160   90.5023    9.9837 C.ar    1  UNL1        0.0070
     17 C          62.4635   89.1705   10.5769 C.ar    1  UNL1        0.0716
     18 C          62.8704   88.8446   11.9834 C.ar    1  UNL1        0.0070
     19 C          63.6299   89.8505   12.7966 C.ar    1  UNL1        0.0369
     20 C          61.7041   88.1645    9.7637 C.3     1  UNL1        0.4186
     21 F          60.9447   87.1586    8.9504 F       1  UNL1       -0.1659
     22 F          60.9171   89.2722    9.1283 F       1  UNL1       -0.1659
     23 F          62.4910   87.0568   10.3990 F       1  UNL1       -0.1659
@<TRIPOS>BOND
     1    10    11    1
     2    11     9    1
     3     9     8    1
     4     8     1    1
     5     1    13    1
     6    13    14    1
     7    14    15   ar
     8    15    16   ar
     9    16    17   ar
    10    17    20    1
    11    20    21    1
    12    20    22    1
    13    20    23    1
    14    17    18   ar
    15    18    19   ar
    16     1     2    1
    17     2     3   ar
    18     3     4   ar
    19     4     5   ar
    20     5     6   ar
    21     6     7   ar
    22    19    14   ar
    23     7     2   ar
    24    11    12    1
@<TRIPOS>MOLECULE
*****
 23 24 0 0 0
SMALL
GASTEIGER

@<TRIPOS>ATOM
      1 C          66.3356   92.4667   12.6984 C.3     1  UNL1        0.1895
      2 C          66.8816   92.9208   11.3772 C.ar    1  UNL1        0.0172
      3 C          67.8690   92.0658   10.6398 C.ar    1  UNL1       -0.0008
      4 C          68.4150   92.5199    9.3186 C.ar    1  UNL1       -0.0002
      5 C          67.9736   93.8292    8.7347 C.ar    1  UNL1       -0.0000
      6 C          66.9860   94.6843    9.4721 C.ar    1  UNL1       -0.0002
      7 C          66.4400   94.2302   10.7933 C.ar    1  UNL1       -0.0008
      8 C          67.2720   92.1233   13.8188 C.3     1  UNL1        0.0653
      9 C          66.7471   91.9746   15.2161 C.3     1  UNL1        0.0727
     10 C          64.4259   91.9397   16.3826 C.3     1  UNL1        0.0859
     11 N          65.4869   92.6792   15.6227 N.3     1  UNL1       -0.2962
     12 H          65.7660   93.4711   16.2018 H       1  UNL1        0.1233
     13 O          64.8532   92.3559   12.8992 O.3     1  UNL1       -0.4747
     14 C          64.0904   91.2372   12.2536 C.ar    1  UNL1        0.1388
     15 C          63.8541   89.9598   13.0034 C.ar    1  UNL1        0.0369
     16 C          63.0913   88.8413   12.3578 C.ar    1  UNL1        0.0070
     17 C          62.5648   89.0001   10.9622 C.ar    1  UNL1        0.0716
     18 C          62.8011   90.2775   10.2123 C.ar    1  UNL1        0.0070
     19 C          63.5639   91.3961   10.8580 C.ar    1  UNL1        0.0369
     20 C          61.8020   87.8815   10.3166 C.3     1  UNL1        0.4186
     21 F          61.0392   86.7629    9.6710 F       1  UNL1       -0.1659
     22 F          61.2997   88.8291    9.2680 F       1  UNL1       -0.1659
     23 F          62.3043   86.9338   11.3651 F       1  UNL1       -0.1659
@<TRIPOS>BOND
     1    10    11    1
     2    11     9    1
     3     9     8    1
     4     8     1    1
     5     1    13    1
     6    13    14    1
     7    14    15   ar
     8    15    16   ar
     9    16    17   ar
    10    17    20    1
    11    20    21    1
    12    20    22    1
    13    20    23    1
    14    17    18   ar
    15    18    19   ar
    16     1     2    1
    17     2     3   ar
    18     3     4   ar
    19     4     5   ar
    20     5     6   ar
    21     6     7   ar
    22    19    14   ar
    23     7     2   ar
    24    11    12    1
@<TRIPOS>MOLECULE
*****
 23 24 0 0 0
SMALL
GASTEIGER

@<TRIPOS>ATOM
      1 C          61.5475   87.6318    9.7016 C.3     1  UNL1        0.1895
      2 C          62.2355   88.7682   10.3982 C.ar    1  UNL1        0.0172
      3 C          62.4391   90.0720    9.6852 C.ar    1  UNL1       -0.0008
      4 C          63.1271   91.2084   10.3818 C.ar    1  UNL1       -0.0002
      5 C          63.6115   91.0409   11.7915 C.ar    1  UNL1       -0.0000
      6 C          63.4079   89.7370   12.5046 C.ar    1  UNL1       -0.0002
      7 C          62.7199   88.6006   11.8080 C.ar    1  UNL1       -0.0008
      8 C          60.0544   87.6347    9.5564 C.3     1  UNL1        0.0653
      9 C          59.4170   87.0116    8.3501 C.3     1  UNL1        0.0727
     10 C          59.2767   89.1915    6.9437 C.3     1  UNL1        0.0859
     11 N          58.6956   87.8711    7.3548 N.3     1  UNL1       -0.2962
     12 H          58.5950   87.3163    6.5048 H       1  UNL1        0.1233
     13 O          62.3524   86.4925    9.1502 O.3     1  UNL1       -0.4747
     14 C          62.7058   85.3294   10.0290 C.ar    1  UNL1        0.1388
     15 C          63.5297   84.2007    9.4838 C.ar    1  UNL1        0.0369
     16 C          63.8831   83.0376   10.3626 C.ar    1  UNL1        0.0070
     17 C          63.4127   83.0033   11.7865 C.ar    1  UNL1        0.0716
     18 C          62.5888   84.1320   12.3317 C.ar    1  UNL1        0.0070
     19 C          62.2354   85.2951   11.4529 C.ar    1  UNL1        0.0369
     20 C          63.7661   81.8401   12.6653 C.3     1  UNL1        0.4186
     21 F          64.1196   80.6770   13.5441 F       1  UNL1       -0.1659
     22 F          63.0105   80.9206   11.7524 F       1  UNL1       -0.1659
     23 F          64.5218   82.7596   13.5783 F       1  UNL1       -0.1659
@<TRIPOS>BOND
     1    10    11    1
     2    11     9    1
     3     9     8    1
     4     8     1    1
     5     1    13    1
     6    13    14    1
     7    14    15   ar
     8    15    16   ar
     9    16    17   ar
    10    17    20    1
    11    20    21    1
    12    20    22    1
    13    20    23    1
    14    17    18   ar
    15    18    19   ar
    16     1     2    1
    17     2     3   ar
    18     3     4   ar
    19     4     5   ar
    20     5     6   ar
    21     6     7   ar
    22    19    14   ar
    23     7     2   ar
    24    11    12    1
@<TRIPOS>MOLECULE
*****
 23 24 0 0 0
SMALL
GASTEIGER

@<TRIPOS>ATOM
      1 C          60.7381   87.5451   10.2741 C.3     1  UNL1        0.1895
      2 C          61.6791   86.3836   10.1497 C.ar    1  UNL1        0.0172
      3 C          62.3251   86.0796    8.8306 C.ar    1  UNL1       -0.0008
      4 C          63.2660   84.9180    8.7063 C.ar    1  UNL1       -0.0002
      5 C          63.5610   84.0606    9.9011 C.ar    1  UNL1       -0.0000
      6 C          62.9150   84.3646   11.2204 C.ar    1  UNL1       -0.0002
      7 C          61.9741   85.5261   11.3447 C.ar    1  UNL1       -0.0008
      8 C          59.6847   87.7719    9.2305 C.3     1  UNL1        0.0653
      9 C          59.8785   88.8320    8.1871 C.3     1  UNL1        0.0727
     10 C          59.1353   89.9637    5.9698 C.3     1  UNL1        0.0859
     11 N          59.0141   88.8448    6.9614 N.3     1  UNL1       -0.2962
     12 H          59.2078   87.9806    6.4554 H       1  UNL1        0.1233
     13 O          60.8505   88.4798   11.4418 O.3     1  UNL1       -0.4747
     14 C          61.9753   89.4703   11.5041 C.ar    1  UNL1        0.1388
     15 C          62.7853   89.6074   12.7592 C.ar    1  UNL1        0.0369
     16 C          63.9100   90.5979   12.8214 C.ar    1  UNL1        0.0070
     17 C          64.2248   91.4513   11.6287 C.ar    1  UNL1        0.0716
     18 C          63.4148   91.3141   10.3737 C.ar    1  UNL1        0.0070
     19 C          62.2901   90.3237   10.3114 C.ar    1  UNL1        0.0369
     20 C          65.3495   92.4418   11.6910 C.3     1  UNL1        0.4186
     21 F          66.4743   93.4322   11.7534 F       1  UNL1       -0.1659
     22 F          64.8178   93.1228   10.4649 F       1  UNL1       -0.1659
     23 F          65.8813   91.7607   12.9171 F       1  UNL1       -0.1659
@<TRIPOS>BOND
     1    10    11    1
     2    11     9    1
     3     9     8    1
     4     8     1    1
     5     1    13    1
     6    13    14    1
     7    14    15   ar
     8    15    16   ar
     9    16    17   ar
    10    17    20    1
    11    20    21    1
    12    20    22    1
    13    20    23    1
    14    17    18   ar
    15    18    19   ar
    16     1     2    1
    17     2     3   ar
    18     3     4   ar
    19     4     5   ar
    20     5     6   ar
    21     6     7   ar
    22    19    14   ar
    23     7     2   ar
    24    11    12    1
@<TRIPOS>MOLECULE
*****
 23 24 0 0 0
SMALL
GASTEIGER

@<TRIPOS>ATOM
      1 C          61.4249   86.6859   10.1286 C.3     1  UNL1        0.1895
      2 C          62.2999   85.5237   10.4941 C.ar    1  UNL1        0.0172
      3 C          62.4392   85.1119   11.9297 C.ar    1  UNL1       -0.0008
      4 C          63.3142   83.9497   12.2951 C.ar    1  UNL1       -0.0002
      5 C          64.0501   83.1993   11.2250 C.ar    1  UNL1       -0.0000
      6 C          63.9109   83.6110    9.7893 C.ar    1  UNL1       -0.0002
      7 C          63.0358   84.7732    9.4238 C.ar    1  UNL1       -0.0008
      8 C          60.8367   86.7780    8.7518 C.3     1  UNL1        0.0653
      9 C          59.3489   86.8509    8.5751 C.3     1  UNL1        0.0727
     10 C          59.3264   88.9990    7.1137 C.3     1  UNL1        0.0859
     11 N          58.7660   87.6478    7.4459 N.3     1  UNL1       -0.2962
     12 H          58.8561   87.0769    6.6054 H       1  UNL1        0.1233
     13 O          61.1380   87.7559   11.1399 O.3     1  UNL1       -0.4747
     14 C          62.0870   88.9058   11.3049 C.ar    1  UNL1        0.1388
     15 C          62.2147   89.9344   10.2207 C.ar    1  UNL1        0.0369
     16 C          63.1637   91.0842   10.3858 C.ar    1  UNL1        0.0070
     17 C          63.9850   91.2054   11.6351 C.ar    1  UNL1        0.0716
     18 C          63.8573   90.1768   12.7194 C.ar    1  UNL1        0.0070
     19 C          62.9083   89.0270   12.5543 C.ar    1  UNL1        0.0369
     20 C          64.9340   92.3553   11.8002 C.3     1  UNL1        0.4186
     21 F          65.8830   93.5051   11.9652 F       1  UNL1       -0.1659
     22 F          65.1504   91.9710   13.2338 F       1  UNL1       -0.1659
     23 F          64.7176   92.7396   10.3665 F       1  UNL1       -0.1659
@<TRIPOS>BOND
     1    10    11    1
     2    11     9    1
     3     9     8    1
     4     8     1    1
     5     1    13    1
     6    13    14    1
     7    14    15   ar
     8    15    16   ar
     9    16    17   ar
    10    17    20    1
    11    20    21    1
    12    20    22    1
    13    20    23    1
    14    17    18   ar
    15    18    19   ar
    16     1     2    1
    17     2     3   ar
    18     3     4   ar
    19     4     5   ar
    20     5     6   ar
    21     6     7   ar
    22    19    14   ar
    23     7     2   ar
    24    11    12    1
@<TRIPOS>MOLECULE
*****
 23 24 0 0 0
SMALL
GASTEIGER

@<TRIPOS>ATOM
      1 C          65.4532   92.2677   12.4410 C.3     1  UNL1        0.1895
      2 C          66.4156   92.3118   13.5907 C.ar    1  UNL1        0.0172
      3 C          65.9316   92.6867   14.9600 C.ar    1  UNL1       -0.0008
      4 C          66.8940   92.7308   16.1097 C.ar    1  UNL1       -0.0002
      5 C          68.3405   92.4000   15.8900 C.ar    1  UNL1       -0.0000
      6 C          68.8246   92.0251   14.5206 C.ar    1  UNL1       -0.0002
      7 C          67.8621   91.9810   13.3710 C.ar    1  UNL1       -0.0008
      8 C          65.9338   92.5536   11.0491 C.3     1  UNL1        0.0653
      9 C          66.2890   93.9556   10.6515 C.3     1  UNL1        0.0727
     10 C          68.3730   93.1916    9.3011 C.3     1  UNL1        0.0859
     11 N          67.6396   94.2508   10.0695 N.3     1  UNL1       -0.2962
     12 H          67.5216   95.0437    9.4388 H       1  UNL1        0.1233
     13 O          64.0101   91.9377   12.6831 O.3     1  UNL1       -0.4747
     14 C          63.3999   90.7265   12.0422 C.ar    1  UNL1        0.1388
     15 C          63.5037   89.3896   12.7144 C.ar    1  UNL1        0.0369
     16 C          62.8936   88.1785   12.0735 C.ar    1  UNL1        0.0070
     17 C          62.1796   88.3042   10.7603 C.ar    1  UNL1        0.0716
     18 C          62.0758   89.6411   10.0881 C.ar    1  UNL1        0.0070
     19 C          62.6860   90.8522   10.7290 C.ar    1  UNL1        0.0369
     20 C          61.5694   87.0930   10.1194 C.3     1  UNL1        0.4186
     21 F          60.9593   85.8819    9.4785 F       1  UNL1       -0.1659
     22 F          62.6188   87.1311    9.0483 F       1  UNL1       -0.1659
     23 F          60.5201   87.0549   11.1905 F       1  UNL1       -0.1659
@<TRIPOS>BOND
     1    10    11    1
     2    11     9    1
     3     9     8    1
     4     8     1    1
     5     1    13    1
     6    13    14    1
     7    14    15   ar
     8    15    16   ar
     9    16    17   ar
    10    17    20    1
    11    20    21    1
    12    20    22    1
    13    20    23    1
    14    17    18   ar
    15    18    19   ar
    16     1     2    1
    17     2     3   ar
    18     3     4   ar
    19     4     5   ar
    20     5     6   ar
    21     6     7   ar
    22    19    14   ar
    23     7     2   ar
    24    11    12    1
@<TRIPOS>MOLECULE
*****
 23 24 0 0 0
SMALL
GASTEIGER

@<TRIPOS>ATOM
      1 C          62.2060   86.5892   11.1127 C.3     1  UNL1        0.1895
      2 C          61.9273   86.1222    9.7148 C.ar    1  UNL1        0.0172
      3 C          62.9854   85.3907    8.9434 C.ar    1  UNL1       -0.0008
      4 C          62.7066   84.9237    7.5455 C.ar    1  UNL1       -0.0002
      5 C          61.3697   85.1882    6.9190 C.ar    1  UNL1       -0.0000
      6 C          60.3114   85.9198    7.6904 C.ar    1  UNL1       -0.0002
      7 C          60.5902   86.3868    9.0883 C.ar    1  UNL1       -0.0008
      8 C          63.0369   85.7455   12.0337 C.3     1  UNL1        0.0653
      9 C          62.3959   84.6435   12.8240 C.3     1  UNL1        0.0727
     10 C          63.5947   83.8067   14.9717 C.3     1  UNL1        0.0859
     11 N          62.5190   84.6231   14.3187 N.3     1  UNL1       -0.2962
     12 H          62.6608   85.5886   14.6157 H       1  UNL1        0.1233
     13 O          61.6540   87.8998   11.5898 O.3     1  UNL1       -0.4747
     14 C          62.5383   89.1102   11.6460 C.ar    1  UNL1        0.1388
     15 C          62.6259   90.0305   10.4648 C.ar    1  UNL1        0.0369
     16 C          63.5101   91.2408   10.5211 C.ar    1  UNL1        0.0070
     17 C          64.3068   91.5308   11.7586 C.ar    1  UNL1        0.0716
     18 C          64.2191   90.6105   12.9398 C.ar    1  UNL1        0.0070
     19 C          63.3349   89.4002   12.8835 C.ar    1  UNL1        0.0369
     20 C          65.1910   92.7412   11.8148 C.3     1  UNL1        0.4186
     21 F          66.0752   93.9516   11.8710 F       1  UNL1       -0.1659
     22 F          65.3340   92.5679   13.2978 F       1  UNL1       -0.1659
     23 F          65.0480   92.9145   10.3318 F       1  UNL1       -0.1659
@<TRIPOS>BOND
     1    10    11    1
     2    11     9    1
     3     9     8    1
     4     8     1    1
     5     1    13    1
     6    13    14    1
     7    14    15   ar
     8    15    16   ar
     9    16    17   ar
    10    17    20    1
    11    20    21    1
    12    20    22    1
    13    20    23    1
    14    17    18   ar
    15    18    19   ar
    16     1     2    1
    17     2     3   ar
    18     3     4   ar
    19     4     5   ar
    20     5     6   ar
    21     6     7   ar
    22    19    14   ar
    23     7     2   ar
    24    11    12    1
@<TRIPOS>MOLECULE
*****
 23 24 0 0 0
SMALL
GASTEIGER

@<TRIPOS>ATOM
      1 C          65.6739   92.2301   12.5269 C.3     1  UNL1        0.1895
      2 C          66.5409   92.3091   13.7483 C.ar    1  UNL1        0.0172
      3 C          68.0200   92.0875   13.6337 C.ar    1  UNL1       -0.0008
      4 C          68.8871   92.1665   14.8552 C.ar    1  UNL1       -0.0002
      5 C          68.2751   92.4669   16.1913 C.ar    1  UNL1       -0.0000
      6 C          66.7959   92.6885   16.3059 C.ar    1  UNL1       -0.0002
      7 C          65.9288   92.6095   15.0845 C.ar    1  UNL1       -0.0008
      8 C          66.2859   92.3566   11.1632 C.3     1  UNL1        0.0653
      9 C          65.7591   93.3752   10.1963 C.3     1  UNL1        0.0727
     10 C          66.2843   95.7335   11.1514 C.3     1  UNL1        0.0859
     11 N          65.2882   94.7092   10.6947 N.3     1  UNL1       -0.2962
     12 H          64.7544   95.1350    9.9369 H       1  UNL1        0.1233
     13 O          64.1948   92.0247   12.6691 O.3     1  UNL1       -0.4747
     14 C          63.5433   90.8181   12.0610 C.ar    1  UNL1        0.1388
     15 C          62.8369   90.9316   10.7426 C.ar    1  UNL1        0.0369
     16 C          62.1854   89.7250   10.1346 C.ar    1  UNL1        0.0070
     17 C          62.2404   88.4050   10.8449 C.ar    1  UNL1        0.0716
     18 C          62.9468   88.2915   12.1632 C.ar    1  UNL1        0.0070
     19 C          63.5983   89.4981   12.7713 C.ar    1  UNL1        0.0369
     20 C          61.5888   87.1984   10.2368 C.3     1  UNL1        0.4186
     21 F          60.9374   85.9919    9.6287 F       1  UNL1       -0.1659
     22 F          60.6084   87.1561   11.3712 F       1  UNL1       -0.1659
     23 F          62.5693   87.2407    9.1024 F       1  UNL1       -0.1659
@<TRIPOS>BOND
     1    10    11    1
     2    11     9    1
     3     9     8    1
     4     8     1    1
     5     1    13    1
     6    13    14    1
     7    14    15   ar
     8    15    16   ar
     9    16    17   ar
    10    17    20    1
    11    20    21    1
    12    20    22    1
    13    20    23    1
    14    17    18   ar
    15    18    19   ar
    16     1     2    1
    17     2     3   ar
    18     3     4   ar
    19     4     5   ar
    20     5     6   ar
    21     6     7   ar
    22    19    14   ar
    23     7     2   ar
    24    11    12    1
