@<TRIPOS>MOLECULE
*****
 37 40 0 0 0
SMALL
GASTEIGER

@<TRIPOS>ATOM
      1 O          61.5724   87.4066   10.9459 O.3     1  UNL1       -0.4741
      2 C          62.4180   88.5793   11.3454 C.ar    1  UNL1        0.1513
      3 C          63.2951   88.4927   12.5592 C.ar    1  UNL1        0.0688
      4 C          64.1407   89.6655   12.9587 C.ar    1  UNL1        0.1620
      5 F          65.0177   89.5789   14.1725 F       1  UNL1       -0.2026
      6 C          64.1092   90.9249   12.1445 C.ar    1  UNL1        0.1535
      7 C          63.2321   91.0115   10.9307 C.ar    1  UNL1        0.0369
      8 C          62.3866   89.8388   10.5312 C.ar    1  UNL1        0.0930
      9 CL         61.5095   89.9254    9.3174 Cl      1  UNL1       -0.0790
     10 S          64.9548   92.0976   12.5440 S.O2    1  UNL1        0.0769
     11 O          65.5108   92.1706   11.1528 O.2     1  UNL1       -0.1498
     12 O          64.3988   92.0245   13.9352 O.2     1  UNL1       -0.1498
     13 N          65.8004   93.2704   12.9435 N.pl3   1  UNL1       -0.1984
     14 H          65.5842   94.1703   12.6078 H       1  UNL1        0.1753
     15 C          66.9755   93.0720   13.8546 C.ar    1  UNL1        0.1542
     16 C          67.1310   93.6475   15.2310 C.ar    1  UNL1        0.0725
     17 S          68.4529   93.1945   15.7762 S.2     1  UNL1       -0.0625
     18 C          69.1144   92.3391   14.7367 C.ar    1  UNL1        0.1360
     19 N          68.2014   92.2633   13.5490 N.ar    1  UNL1       -0.2203
     20 C          61.6355   86.1328   11.7355 C.3     1  UNL1        0.2110
     21 C          62.7810   84.6467    9.9383 C.3     1  UNL1        0.0620
     22 C          63.7759   83.5857    9.5719 C.3     1  UNL1        0.0208
     23 C          64.6203   82.9497   10.6361 C.3     1  UNL1        0.0271
     24 C          64.4697   83.3746   12.0667 C.2     1  UNL1       -0.0302
     25 C          63.4748   84.4357   12.4331 C.2     1  UNL1       -0.0218
     26 C          62.6305   85.0717   11.3690 C.3     1  UNL1        0.0801
     27 C          63.3243   84.8607   13.8638 C.ar    1  UNL1       -0.0040
     28 C          64.2324   85.9095   14.4342 C.ar    1  UNL1        0.0020
     29 C          64.0819   86.3345   15.8648 C.ar    1  UNL1        0.0296
     30 C          63.0231   85.7107   16.7251 C.ar    1  UNL1        0.1401
     31 F          62.8725   86.1357   18.1557 F       1  UNL1       -0.2042
     32 C          62.1150   84.6619   16.1546 C.ar    1  UNL1        0.0296
     33 C          62.2655   84.2369   14.7240 C.ar    1  UNL1        0.0020
     34 N          61.9366   85.2828    8.8742 N.3     1  UNL1       -0.2982
     35 H          61.0370   84.8021    8.8856 H       1  UNL1        0.1232
     36 C          61.6563   84.5113    6.4092 C.3     1  UNL1        0.0185
     37 C          62.4055   85.2902    7.4494 C.3     1  UNL1        0.0686
@<TRIPOS>BOND
     1    36    37    1
     2    37    34    1
     3    21    34    1
     4    21    22    1
     5    22    23    1
     6    23    24    1
     7    24    25    2
     8    25    27    1
     9    27    28   ar
    10    28    29   ar
    11    29    30   ar
    12    30    31    1
    13    30    32   ar
    14    32    33   ar
    15    25    26    1
    16    26    20    1
    17    20     1    1
    18     1     2    1
    19     2     3   ar
    20     3     4   ar
    21     4     5    1
    22     4     6   ar
    23     6    10    1
    24    10    11    2
    25    10    12    2
    26    10    13    1
    27    13    15    1
    28    15    16   ar
    29    16    17   ar
    30    17    18   ar
    31    18    19   ar
    32     6     7   ar
    33     7     8   ar
    34     8     9    1
    35    26    21    1
    36     8     2   ar
    37    33    27   ar
    38    19    15   ar
    39    34    35    1
    40    13    14    1
@<TRIPOS>MOLECULE
*****
 37 40 0 0 0
SMALL
GASTEIGER

@<TRIPOS>ATOM
      1 O          64.2771   89.8035   15.0816 O.3     1  UNL1       -0.4741
      2 C          63.9633   88.3381   15.1452 C.ar    1  UNL1        0.1513
      3 C          64.2203   87.4637   13.9538 C.ar    1  UNL1        0.0688
      4 C          63.9065   85.9983   14.0173 C.ar    1  UNL1        0.1620
      5 F          64.1634   85.1239   12.8259 F       1  UNL1       -0.2026
      6 C          63.3358   85.4072   15.2723 C.ar    1  UNL1        0.1535
      7 C          63.0789   86.2816   16.4637 C.ar    1  UNL1        0.0369
      8 C          63.3926   87.7470   16.4002 C.ar    1  UNL1        0.0930
      9 CL         63.1357   88.6214   17.5916 Cl      1  UNL1       -0.0790
     10 S          63.0220   83.9418   15.3358 S.O2    1  UNL1        0.0769
     11 O          64.4882   83.6304   15.3927 O.2     1  UNL1       -0.1498
     12 O          61.5559   84.2533   15.2790 O.2     1  UNL1       -0.1498
     13 N          62.7083   82.4763   15.3994 N.pl3   1  UNL1       -0.1984
     14 H          62.5116   82.0521   16.2658 H       1  UNL1        0.1753
     15 C          62.6944   81.6572   14.1429 C.ar    1  UNL1        0.1542
     16 C          62.7251   82.1915   12.7416 C.ar    1  UNL1        0.0725
     17 S          62.6970   81.0244   11.7997 S.2     1  UNL1       -0.0625
     18 C          62.6489   79.7687   12.6189 C.ar    1  UNL1        0.1360
     19 N          62.6473   80.1597   14.0671 N.ar    1  UNL1       -0.2203
     20 C          63.5240   90.6915   14.1359 C.3     1  UNL1        0.2110
     21 C          65.3829   92.3642   13.4312 C.3     1  UNL1        0.0620
     22 C          66.1180   93.1135   12.3598 C.3     1  UNL1        0.0208
     23 C          65.7295   92.9394   10.9215 C.3     1  UNL1        0.0271
     24 C          64.6057   92.0161   10.5546 C.2     1  UNL1       -0.0302
     25 C          63.8706   91.2668   11.6261 C.2     1  UNL1       -0.0218
     26 C          64.2592   91.4408   13.0644 C.3     1  UNL1        0.0801
     27 C          62.7468   90.3434   11.2593 C.ar    1  UNL1       -0.0040
     28 C          61.3747   90.8948   11.0077 C.ar    1  UNL1        0.0020
     29 C          60.2509   89.9714   10.6409 C.ar    1  UNL1        0.0296
     30 C          60.4993   88.4966   10.5257 C.ar    1  UNL1        0.1401
     31 F          59.3756   87.5732   10.1589 F       1  UNL1       -0.2042
     32 C          61.8714   87.9452   10.7773 C.ar    1  UNL1        0.0296
     33 C          62.9951   88.8686   11.1441 C.ar    1  UNL1        0.0020
     34 N          65.7715   92.5382   14.8695 N.3     1  UNL1       -0.2982
     35 H          65.0448   93.1070   15.3041 H       1  UNL1        0.1232
     36 C          68.1278   92.3806   15.9525 C.3     1  UNL1        0.0185
     37 C          67.0850   93.1720   15.2201 C.3     1  UNL1        0.0686
@<TRIPOS>BOND
     1    36    37    1
     2    37    34    1
     3    21    34    1
     4    21    22    1
     5    22    23    1
     6    23    24    1
     7    24    25    2
     8    25    27    1
     9    27    28   ar
    10    28    29   ar
    11    29    30   ar
    12    30    31    1
    13    30    32   ar
    14    32    33   ar
    15    25    26    1
    16    26    20    1
    17    20     1    1
    18     1     2    1
    19     2     3   ar
    20     3     4   ar
    21     4     5    1
    22     4     6   ar
    23     6    10    1
    24    10    11    2
    25    10    12    2
    26    10    13    1
    27    13    15    1
    28    15    16   ar
    29    16    17   ar
    30    17    18   ar
    31    18    19   ar
    32     6     7   ar
    33     7     8   ar
    34     8     9    1
    35    26    21    1
    36     8     2   ar
    37    33    27   ar
    38    19    15   ar
    39    34    35    1
    40    13    14    1
@<TRIPOS>MOLECULE
*****
 37 40 0 0 0
SMALL
GASTEIGER

@<TRIPOS>ATOM
      1 O          63.3392   87.7940   13.9572 O.3     1  UNL1       -0.4741
      2 C          63.9504   89.1234   13.6270 C.ar    1  UNL1        0.1513
      3 C          65.0339   89.6877   14.4974 C.ar    1  UNL1        0.0688
      4 C          65.6451   91.0172   14.1671 C.ar    1  UNL1        0.1620
      5 F          66.7286   91.5814   15.0375 F       1  UNL1       -0.2026
      6 C          65.1728   91.7823   12.9666 C.ar    1  UNL1        0.1535
      7 C          64.0893   91.2180   12.0962 C.ar    1  UNL1        0.0369
      8 C          63.4781   89.8886   12.4264 C.ar    1  UNL1        0.0930
      9 CL         62.3946   89.3244   11.5560 Cl      1  UNL1       -0.0790
     10 S          65.7840   93.1117   12.6364 S.O2    1  UNL1        0.0769
     11 O          65.7228   93.4994   14.0841 O.2     1  UNL1       -0.1498
     12 O          65.8452   92.7240   11.1887 O.2     1  UNL1       -0.1498
     13 N          66.3953   94.4412   12.3063 N.pl3   1  UNL1       -0.1984
     14 H          66.5963   95.0828   13.0254 H       1  UNL1        0.1753
     15 C          66.7001   94.7932   10.8804 C.ar    1  UNL1        0.1542
     16 C          65.9449   95.7742   10.0335 C.ar    1  UNL1        0.0725
     17 S          66.5917   95.8133    8.6807 S.2     1  UNL1       -0.0625
     18 C          67.7467   94.8563    8.6914 C.ar    1  UNL1        0.1360
     19 N          67.8138   94.2258   10.0509 N.ar    1  UNL1       -0.2203
     20 C          63.8480   86.5489   13.2932 C.3     1  UNL1        0.2110
     21 C          63.4577   84.8360   15.2073 C.3     1  UNL1        0.0620
     22 C          62.9810   83.4911   15.6697 C.3     1  UNL1        0.0208
     23 C          62.4179   82.5141   14.6805 C.3     1  UNL1        0.0271
     24 C          62.3315   82.8820   13.2289 C.2     1  UNL1       -0.0302
     25 C          62.8082   84.2269   12.7665 C.2     1  UNL1       -0.0218
     26 C          63.3713   85.2039   13.7557 C.3     1  UNL1        0.0801
     27 C          62.7219   84.5949   11.3149 C.ar    1  UNL1       -0.0040
     28 C          61.7353   85.6295   10.8609 C.ar    1  UNL1        0.0020
     29 C          61.6489   85.9975    9.4092 C.ar    1  UNL1        0.0296
     30 C          62.5492   85.3309    8.4117 C.ar    1  UNL1        0.1401
     31 F          62.4629   85.6988    6.9601 F       1  UNL1       -0.2042
     32 C          63.5358   84.2962    8.8658 C.ar    1  UNL1        0.0296
     33 C          63.6221   83.9283   10.3173 C.ar    1  UNL1        0.0020
     34 N          64.0208   85.8130   16.1964 N.3     1  UNL1       -0.2982
     35 H          64.7929   85.3423   16.6683 H       1  UNL1        0.1232
     36 C          62.9014   87.8643   17.3317 C.3     1  UNL1        0.0185
     37 C          63.1420   86.3851   17.2690 C.3     1  UNL1        0.0686
@<TRIPOS>BOND
     1    36    37    1
     2    37    34    1
     3    21    34    1
     4    21    22    1
     5    22    23    1
     6    23    24    1
     7    24    25    2
     8    25    27    1
     9    27    28   ar
    10    28    29   ar
    11    29    30   ar
    12    30    31    1
    13    30    32   ar
    14    32    33   ar
    15    25    26    1
    16    26    20    1
    17    20     1    1
    18     1     2    1
    19     2     3   ar
    20     3     4   ar
    21     4     5    1
    22     4     6   ar
    23     6    10    1
    24    10    11    2
    25    10    12    2
    26    10    13    1
    27    13    15    1
    28    15    16   ar
    29    16    17   ar
    30    17    18   ar
    31    18    19   ar
    32     6     7   ar
    33     7     8   ar
    34     8     9    1
    35    26    21    1
    36     8     2   ar
    37    33    27   ar
    38    19    15   ar
    39    34    35    1
    40    13    14    1
@<TRIPOS>MOLECULE
*****
 37 40 0 0 0
SMALL
GASTEIGER

@<TRIPOS>ATOM
      1 O          60.6689   88.1051   11.5825 O.3     1  UNL1       -0.4741
      2 C          61.7655   89.1180   11.7295 C.ar    1  UNL1        0.1513
      3 C          62.8212   88.9335   12.7790 C.ar    1  UNL1        0.0688
      4 C          63.9178   89.9465   12.9259 C.ar    1  UNL1        0.1620
      5 F          64.9735   89.7620   13.9754 F       1  UNL1       -0.2026
      6 C          63.9586   91.1438   12.0234 C.ar    1  UNL1        0.1535
      7 C          62.9029   91.3283   10.9739 C.ar    1  UNL1        0.0369
      8 C          61.8063   90.3154   10.8269 C.ar    1  UNL1        0.0930
      9 CL         60.7506   90.4999    9.7774 Cl      1  UNL1       -0.0790
     10 S          65.0551   92.1567   12.1703 S.O2    1  UNL1        0.0769
     11 O          65.3892   92.0061   10.7158 O.2     1  UNL1       -0.1498
     12 O          64.7210   92.3073   13.6249 O.2     1  UNL1       -0.1498
     13 N          66.1517   93.1696   12.3173 N.pl3   1  UNL1       -0.1984
     14 H          66.6303   93.2564   13.1732 H       1  UNL1        0.1753
     15 C          66.5191   94.0503   11.1600 C.ar    1  UNL1        0.1542
     16 C          65.7847   95.2827   10.7218 C.ar    1  UNL1        0.0725
     17 S          66.4972   95.8473    9.5287 S.2     1  UNL1       -0.0625
     18 C          67.6720   94.9640    9.2294 C.ar    1  UNL1        0.1360
     19 N          67.6856   93.8533   10.2376 N.ar    1  UNL1       -0.2203
     20 C          61.0008   86.6434   11.5253 C.3     1  UNL1        0.2110
     21 C          61.1187   86.5338    8.9322 C.3     1  UNL1        0.0620
     22 C          61.7029   85.9458    7.6821 C.3     1  UNL1        0.0208
     23 C          62.7536   84.8792    7.7750 C.3     1  UNL1        0.0271
     24 C          63.2200   84.4008    9.1179 C.2     1  UNL1       -0.0302
     25 C          62.6358   84.9888   10.3680 C.2     1  UNL1       -0.0218
     26 C          61.5851   86.0554   10.2751 C.3     1  UNL1        0.0801
     27 C          63.1022   84.5104   11.7110 C.ar    1  UNL1       -0.0040
     28 C          63.1168   83.0428   12.0208 C.ar    1  UNL1        0.0020
     29 C          63.5832   82.5643   13.3638 C.ar    1  UNL1        0.0296
     30 C          64.0350   83.5535   14.3970 C.ar    1  UNL1        0.1401
     31 F          64.5013   83.0751   15.7399 F       1  UNL1       -0.2042
     32 C          64.0203   85.0211   14.0871 C.ar    1  UNL1        0.0296
     33 C          63.5539   85.4995   12.7442 C.ar    1  UNL1        0.0020
     34 N          60.0680   87.6003    8.8394 N.3     1  UNL1       -0.2982
     35 H          59.3948   87.4160    9.5832 H       1  UNL1        0.1232
     36 C          59.2874   89.0855    6.8557 C.3     1  UNL1        0.0185
     37 C          59.2800   87.7688    7.5742 C.3     1  UNL1        0.0686
@<TRIPOS>BOND
     1    36    37    1
     2    37    34    1
     3    21    34    1
     4    21    22    1
     5    22    23    1
     6    23    24    1
     7    24    25    2
     8    25    27    1
     9    27    28   ar
    10    28    29   ar
    11    29    30   ar
    12    30    31    1
    13    30    32   ar
    14    32    33   ar
    15    25    26    1
    16    26    20    1
    17    20     1    1
    18     1     2    1
    19     2     3   ar
    20     3     4   ar
    21     4     5    1
    22     4     6   ar
    23     6    10    1
    24    10    11    2
    25    10    12    2
    26    10    13    1
    27    13    15    1
    28    15    16   ar
    29    16    17   ar
    30    17    18   ar
    31    18    19   ar
    32     6     7   ar
    33     7     8   ar
    34     8     9    1
    35    26    21    1
    36     8     2   ar
    37    33    27   ar
    38    19    15   ar
    39    34    35    1
    40    13    14    1
@<TRIPOS>MOLECULE
*****
 37 40 0 0 0
SMALL
GASTEIGER

@<TRIPOS>ATOM
      1 O          61.3769   88.2405   11.0920 O.3     1  UNL1       -0.4741
      2 C          62.3973   89.3157   11.3210 C.ar    1  UNL1        0.1513
      3 C          63.2499   89.2900   12.5548 C.ar    1  UNL1        0.0688
      4 C          64.2704   90.3654   12.7838 C.ar    1  UNL1        0.1620
      5 F          65.1231   90.3397   14.0176 F       1  UNL1       -0.2026
      6 C          64.4381   91.4664   11.7791 C.ar    1  UNL1        0.1535
      7 C          63.5854   91.4921   10.5453 C.ar    1  UNL1        0.0369
      8 C          62.5650   90.4168   10.3162 C.ar    1  UNL1        0.0930
      9 CL         61.7123   90.4426    9.0824 Cl      1  UNL1       -0.0790
     10 S          65.4585   92.5417   12.0081 S.O2    1  UNL1        0.0769
     11 O          65.9461   92.3792   10.5989 O.2     1  UNL1       -0.1498
     12 O          64.9709   92.7042   13.4173 O.2     1  UNL1       -0.1498
     13 N          66.4790   93.6170   12.2371 N.pl3   1  UNL1       -0.1984
     14 H          67.0179   93.6168   13.0610 H       1  UNL1        0.1753
     15 C          66.6782   94.6927   11.2108 C.ar    1  UNL1        0.1542
     16 C          66.0053   96.0332   11.1966 C.ar    1  UNL1        0.0725
     17 S          66.4965   96.7858    9.9956 S.2     1  UNL1       -0.0625
     18 C          67.4729   95.9103    9.2675 C.ar    1  UNL1        0.1360
     19 N          67.5853   94.6167   10.0185 N.ar    1  UNL1       -0.2203
     20 C          61.5160   86.9154   11.7811 C.3     1  UNL1        0.2110
     21 C          62.2815   85.6291    9.6575 C.3     1  UNL1        0.0620
     22 C          63.0846   84.5335    9.0213 C.3     1  UNL1        0.0208
     23 C          63.9254   83.6288    9.8725 C.3     1  UNL1        0.0271
     24 C          63.9631   83.8195   11.3598 C.2     1  UNL1       -0.0302
     25 C          63.1600   84.9151   11.9960 C.2     1  UNL1       -0.0218
     26 C          62.3192   85.8198   11.1448 C.3     1  UNL1        0.0801
     27 C          63.1977   85.1059   13.4834 C.ar    1  UNL1       -0.0040
     28 C          62.3067   84.2849   14.3676 C.ar    1  UNL1        0.0020
     29 C          62.3444   84.4757   15.8550 C.ar    1  UNL1        0.0296
     30 C          63.2731   85.4876   16.4580 C.ar    1  UNL1        0.1401
     31 F          63.3108   85.6784   17.9453 F       1  UNL1       -0.2042
     32 C          64.1641   86.3086   15.5737 C.ar    1  UNL1        0.0296
     33 C          64.1264   86.1177   14.0864 C.ar    1  UNL1        0.0020
     34 N          61.4406   86.5338    8.8064 N.3     1  UNL1       -0.2982
     35 H          61.0025   87.2066    9.4355 H       1  UNL1        0.1232
     36 C          59.0626   86.7149    7.7757 C.3     1  UNL1        0.0185
     37 C          60.3464   85.9602    7.9558 C.3     1  UNL1        0.0686
@<TRIPOS>BOND
     1    36    37    1
     2    37    34    1
     3    21    34    1
     4    21    22    1
     5    22    23    1
     6    23    24    1
     7    24    25    2
     8    25    27    1
     9    27    28   ar
    10    28    29   ar
    11    29    30   ar
    12    30    31    1
    13    30    32   ar
    14    32    33   ar
    15    25    26    1
    16    26    20    1
    17    20     1    1
    18     1     2    1
    19     2     3   ar
    20     3     4   ar
    21     4     5    1
    22     4     6   ar
    23     6    10    1
    24    10    11    2
    25    10    12    2
    26    10    13    1
    27    13    15    1
    28    15    16   ar
    29    16    17   ar
    30    17    18   ar
    31    18    19   ar
    32     6     7   ar
    33     7     8   ar
    34     8     9    1
    35    26    21    1
    36     8     2   ar
    37    33    27   ar
    38    19    15   ar
    39    34    35    1
    40    13    14    1
@<TRIPOS>MOLECULE
*****
 37 40 0 0 0
SMALL
GASTEIGER

@<TRIPOS>ATOM
      1 O          60.5363   87.9891   11.5295 O.3     1  UNL1       -0.4741
      2 C          61.6235   89.0099   11.6901 C.ar    1  UNL1        0.1513
      3 C          62.6964   88.8075   12.7187 C.ar    1  UNL1        0.0688
      4 C          63.7836   89.8284   12.8793 C.ar    1  UNL1        0.1620
      5 F          64.8565   89.6260   13.9078 F       1  UNL1       -0.2026
      6 C          63.7978   91.0517   12.0114 C.ar    1  UNL1        0.1535
      7 C          62.7249   91.2542   10.9829 C.ar    1  UNL1        0.0369
      8 C          61.6378   90.2333   10.8222 C.ar    1  UNL1        0.0930
      9 CL         60.5649   90.4358    9.7937 Cl      1  UNL1       -0.0790
     10 S          64.8850   92.0726   12.1721 S.O2    1  UNL1        0.0769
     11 O          65.1240   92.0511   10.6914 O.2     1  UNL1       -0.1498
     12 O          64.6460   92.0941   13.6527 O.2     1  UNL1       -0.1498
     13 N          65.9722   93.0935   12.3327 N.pl3   1  UNL1       -0.1984
     14 H          66.0532   93.8322   11.6869 H       1  UNL1        0.1753
     15 C          66.9360   92.9890   13.4773 C.ar    1  UNL1        0.1542
     16 C          66.8929   93.7934   14.7426 C.ar    1  UNL1        0.0725
     17 S          68.0424   93.3633   15.6049 S.2     1  UNL1       -0.0625
     18 C          68.7960   92.2929   14.8725 C.ar    1  UNL1        0.1360
     19 N          68.1123   92.0615   13.5576 N.ar    1  UNL1       -0.2203
     20 C          60.8818   86.5316   11.4499 C.3     1  UNL1        0.2110
     21 C          61.0112   86.4325    8.8569 C.3     1  UNL1        0.0620
     22 C          61.6252   85.8744    7.6073 C.3     1  UNL1        0.0208
     23 C          62.7236   84.8573    7.7010 C.3     1  UNL1        0.0271
     24 C          63.2082   84.3982    9.0442 C.2     1  UNL1       -0.0302
     25 C          62.5943   84.9563   10.2939 C.2     1  UNL1       -0.0218
     26 C          61.4958   85.9735   10.2002 C.3     1  UNL1        0.0801
     27 C          63.0788   84.4973   11.6372 C.ar    1  UNL1       -0.0040
     28 C          63.1677   83.0312   11.9417 C.ar    1  UNL1        0.0020
     29 C          63.6522   82.5722   13.2851 C.ar    1  UNL1        0.0296
     30 C          64.0479   83.5793   14.3239 C.ar    1  UNL1        0.1401
     31 F          64.5324   83.1204   15.6672 F       1  UNL1       -0.2042
     32 C          63.9590   85.0454   14.0194 C.ar    1  UNL1        0.0296
     33 C          63.4745   85.5044   12.6761 C.ar    1  UNL1        0.0020
     34 N          59.9127   87.4496    8.7632 N.3     1  UNL1       -0.2982
     35 H          59.1814   87.1536    9.4097 H       1  UNL1        0.1232
     36 C          59.3589   89.0654    6.8056 C.3     1  UNL1        0.0185
     37 C          59.2455   87.7138    7.4461 C.3     1  UNL1        0.0686
@<TRIPOS>BOND
     1    36    37    1
     2    37    34    1
     3    21    34    1
     4    21    22    1
     5    22    23    1
     6    23    24    1
     7    24    25    2
     8    25    27    1
     9    27    28   ar
    10    28    29   ar
    11    29    30   ar
    12    30    31    1
    13    30    32   ar
    14    32    33   ar
    15    25    26    1
    16    26    20    1
    17    20     1    1
    18     1     2    1
    19     2     3   ar
    20     3     4   ar
    21     4     5    1
    22     4     6   ar
    23     6    10    1
    24    10    11    2
    25    10    12    2
    26    10    13    1
    27    13    15    1
    28    15    16   ar
    29    16    17   ar
    30    17    18   ar
    31    18    19   ar
    32     6     7   ar
    33     7     8   ar
    34     8     9    1
    35    26    21    1
    36     8     2   ar
    37    33    27   ar
    38    19    15   ar
    39    34    35    1
    40    13    14    1
@<TRIPOS>MOLECULE
*****
 37 40 0 0 0
SMALL
GASTEIGER

@<TRIPOS>ATOM
      1 O          63.1473   90.9193   12.6930 O.3     1  UNL1       -0.4741
      2 C          62.9811   89.4585   12.3956 C.ar    1  UNL1        0.1513
      3 C          63.6973   88.4373   13.2288 C.ar    1  UNL1        0.0688
      4 C          63.5311   86.9764   12.9313 C.ar    1  UNL1        0.1620
      5 F          64.2472   85.9552   13.7644 F       1  UNL1       -0.2026
      6 C          62.6488   86.5369   11.8007 C.ar    1  UNL1        0.1535
      7 C          61.9326   87.5582   10.9675 C.ar    1  UNL1        0.0369
      8 C          62.0988   89.0189   11.2649 C.ar    1  UNL1        0.0930
      9 CL         61.3826   90.0402   10.4318 Cl      1  UNL1       -0.0790
     10 S          62.4826   85.0761   11.5032 S.O2    1  UNL1        0.0769
     11 O          62.0334   84.8398   12.9147 O.2     1  UNL1       -0.1498
     12 O          62.9319   85.3125   10.0918 O.2     1  UNL1       -0.1498
     13 N          62.3164   83.6153   11.2058 N.pl3   1  UNL1       -0.1984
     14 H          61.8918   83.3293   10.3649 H       1  UNL1        0.1753
     15 C          62.7973   82.5902   12.1897 C.ar    1  UNL1        0.1542
     16 C          61.9668   81.5062   12.8103 C.ar    1  UNL1        0.0725
     17 S          62.8492   80.7152   13.7299 S.2     1  UNL1       -0.0625
     18 C          64.2251   81.3103   13.6776 C.ar    1  UNL1        0.1360
     19 N          64.1931   82.4691   12.7257 N.ar    1  UNL1       -0.2203
     20 C          64.4495   91.6018   12.3958 C.3     1  UNL1        0.2110
     21 C          64.9276   91.7985   14.9419 C.3     1  UNL1        0.0620
     22 C          65.8154   92.2427   16.0664 C.3     1  UNL1        0.0208
     23 C          67.1128   92.9345   15.7693 C.3     1  UNL1        0.0271
     24 C          67.5224   93.1821   14.3477 C.2     1  UNL1       -0.0302
     25 C          66.6346   92.7379   13.2233 C.2     1  UNL1       -0.0218
     26 C          65.3372   92.0461   13.5203 C.3     1  UNL1        0.0801
     27 C          67.0442   92.9855   11.8016 C.ar    1  UNL1       -0.0040
     28 C          67.9400   92.0094   11.0984 C.ar    1  UNL1        0.0020
     29 C          68.3496   92.2569    9.6767 C.ar    1  UNL1        0.0296
     30 C          67.8633   93.4806    8.9584 C.ar    1  UNL1        0.1401
     31 F          68.2728   93.7283    7.5368 F       1  UNL1       -0.2042
     32 C          66.9674   94.4568    9.6617 C.ar    1  UNL1        0.0296
     33 C          66.5578   94.2092   11.0833 C.ar    1  UNL1        0.0020
     34 N          63.6303   91.1067   15.2390 N.3     1  UNL1       -0.2982
     35 H          62.8930   91.8025   15.1264 H       1  UNL1        0.1232
     36 C          63.1068   88.9933   16.6567 C.3     1  UNL1        0.0185
     37 C          63.4143   90.4592   16.5747 C.3     1  UNL1        0.0686
@<TRIPOS>BOND
     1    36    37    1
     2    37    34    1
     3    21    34    1
     4    21    22    1
     5    22    23    1
     6    23    24    1
     7    24    25    2
     8    25    27    1
     9    27    28   ar
    10    28    29   ar
    11    29    30   ar
    12    30    31    1
    13    30    32   ar
    14    32    33   ar
    15    25    26    1
    16    26    20    1
    17    20     1    1
    18     1     2    1
    19     2     3   ar
    20     3     4   ar
    21     4     5    1
    22     4     6   ar
    23     6    10    1
    24    10    11    2
    25    10    12    2
    26    10    13    1
    27    13    15    1
    28    15    16   ar
    29    16    17   ar
    30    17    18   ar
    31    18    19   ar
    32     6     7   ar
    33     7     8   ar
    34     8     9    1
    35    26    21    1
    36     8     2   ar
    37    33    27   ar
    38    19    15   ar
    39    34    35    1
    40    13    14    1
@<TRIPOS>MOLECULE
*****
 37 40 0 0 0
SMALL
GASTEIGER

@<TRIPOS>ATOM
      1 O          62.4532   88.4816   13.0634 O.3     1  UNL1       -0.4741
      2 C          63.3401   89.6564   12.7747 C.ar    1  UNL1        0.1513
      3 C          63.1607   90.4380   11.5071 C.ar    1  UNL1        0.0688
      4 C          64.0477   91.6128   11.2185 C.ar    1  UNL1        0.1620
      5 F          63.8683   92.3944    9.9509 F       1  UNL1       -0.2026
      6 C          65.1139   92.0059   12.1975 C.ar    1  UNL1        0.1535
      7 C          65.2933   91.2243   13.4651 C.ar    1  UNL1        0.0369
      8 C          64.4065   90.0496   13.7537 C.ar    1  UNL1        0.0930
      9 CL         64.5859   89.2679   15.0214 Cl      1  UNL1       -0.0790
     10 S          66.0008   93.1807   11.9088 S.O2    1  UNL1        0.0769
     11 O          66.3283   92.6030   10.5639 O.2     1  UNL1       -0.1498
     12 O          65.6734   93.7584   13.2538 O.2     1  UNL1       -0.1498
     13 N          66.8878   94.3555   11.6201 N.pl3   1  UNL1       -0.1984
     14 H          67.6545   94.5493   12.2065 H       1  UNL1        0.1753
     15 C          66.6065   95.2349   10.4380 C.ar    1  UNL1        0.1542
     16 C          67.4961   95.4189    9.2444 C.ar    1  UNL1        0.0725
     17 S          66.8256   96.3825    8.3106 S.2     1  UNL1       -0.0625
     18 C          65.5216   96.7941    8.9271 C.ar    1  UNL1        0.1360
     19 N          65.3861   96.0849   10.2419 N.ar    1  UNL1       -0.2203
     20 C          61.7605   87.7706   11.9388 C.3     1  UNL1        0.2110
     21 C          63.1614   85.6170   12.3255 C.3     1  UNL1        0.0620
     22 C          63.6927   84.3060   11.8268 C.3     1  UNL1        0.0208
     23 C          63.3543   83.8373   10.4427 C.3     1  UNL1        0.0271
     24 C          62.4847   84.6797    9.5573 C.2     1  UNL1       -0.0302
     25 C          61.9534   85.9908   10.0560 C.2     1  UNL1       -0.0218
     26 C          62.2918   86.4595   11.4401 C.3     1  UNL1        0.0801
     27 C          61.0837   86.8333    9.1705 C.ar    1  UNL1       -0.0040
     28 C          60.1695   86.1804    8.1767 C.ar    1  UNL1        0.0020
     29 C          59.2998   87.0229    7.2913 C.ar    1  UNL1        0.0296
     30 C          59.3444   88.5183    7.3998 C.ar    1  UNL1        0.1401
     31 F          58.4748   89.3608    6.5144 F       1  UNL1       -0.2042
     32 C          60.2588   89.1712    8.3937 C.ar    1  UNL1        0.0296
     33 C          61.1284   88.3287    9.2790 C.ar    1  UNL1        0.0020
     34 N          63.4998   86.0857   13.7097 N.3     1  UNL1       -0.2982
     35 H          64.3230   86.6821   13.6256 H       1  UNL1        0.1232
     36 C          62.6734   84.4352   15.5380 C.3     1  UNL1        0.0185
     37 C          63.7974   85.0865   14.7880 C.3     1  UNL1        0.0686
@<TRIPOS>BOND
     1    36    37    1
     2    37    34    1
     3    21    34    1
     4    21    22    1
     5    22    23    1
     6    23    24    1
     7    24    25    2
     8    25    27    1
     9    27    28   ar
    10    28    29   ar
    11    29    30   ar
    12    30    31    1
    13    30    32   ar
    14    32    33   ar
    15    25    26    1
    16    26    20    1
    17    20     1    1
    18     1     2    1
    19     2     3   ar
    20     3     4   ar
    21     4     5    1
    22     4     6   ar
    23     6    10    1
    24    10    11    2
    25    10    12    2
    26    10    13    1
    27    13    15    1
    28    15    16   ar
    29    16    17   ar
    30    17    18   ar
    31    18    19   ar
    32     6     7   ar
    33     7     8   ar
    34     8     9    1
    35    26    21    1
    36     8     2   ar
    37    33    27   ar
    38    19    15   ar
    39    34    35    1
    40    13    14    1
@<TRIPOS>MOLECULE
*****
 37 40 0 0 0
SMALL
GASTEIGER

@<TRIPOS>ATOM
      1 O          63.0201   85.8557   12.3280 O.3     1  UNL1       -0.4741
      2 C          62.1277   86.4202   11.2628 C.ar    1  UNL1        0.1513
      3 C          61.1479   87.5042   11.6020 C.ar    1  UNL1        0.0688
      4 C          60.2554   88.0687   10.5366 C.ar    1  UNL1        0.1620
      5 F          59.2757   89.1527   10.8758 F       1  UNL1       -0.2026
      6 C          60.3427   87.5492    9.1322 C.ar    1  UNL1        0.1535
      7 C          61.3225   86.4652    8.7930 C.ar    1  UNL1        0.0369
      8 C          62.2149   85.9007    9.8583 C.ar    1  UNL1        0.0930
      9 CL         63.1946   84.8167    9.5191 Cl      1  UNL1       -0.0790
     10 S          59.4503   88.1137    8.0669 S.O2    1  UNL1        0.0769
     11 O          58.7776   86.7807    7.9241 O.2     1  UNL1       -0.1498
     12 O          60.1230   89.4468    8.2098 O.2     1  UNL1       -0.1498
     13 N          58.5577   88.6782    7.0016 N.pl3   1  UNL1       -0.1984
     14 H          57.6558   88.3071    6.8675 H       1  UNL1        0.1753
     15 C          59.0395   89.8081    6.1407 C.ar    1  UNL1        0.1542
     16 C          58.2133   90.9634    5.6583 C.ar    1  UNL1        0.0725
     17 S          59.0952   91.8504    4.8304 S.2     1  UNL1       -0.0625
     18 C          60.4666   91.2433    4.8011 C.ar    1  UNL1        0.1360
     19 N          60.4322   89.9811    5.6109 N.ar    1  UNL1       -0.2203
     20 C          63.9496   86.7584   13.0838 C.3     1  UNL1        0.2110
     21 C          63.3897   85.9976   15.5040 C.3     1  UNL1        0.0620
     22 C          63.1080   86.3328   16.9387 C.3     1  UNL1        0.0208
     23 C          63.1046   87.7639   17.3878 C.3     1  UNL1        0.0271
     24 C          63.3828   88.8599   16.4023 C.2     1  UNL1       -0.0302
     25 C          63.6645   88.5248   14.9676 C.2     1  UNL1       -0.0218
     26 C          63.6679   87.0936   14.5185 C.3     1  UNL1        0.0801
     27 C          63.9428   89.6208   13.9820 C.ar    1  UNL1       -0.0040
     28 C          65.0711   90.5788   14.2245 C.ar    1  UNL1        0.0020
     29 C          65.3494   91.6749   13.2389 C.ar    1  UNL1        0.0296
     30 C          64.4993   91.8127   12.0108 C.ar    1  UNL1        0.1401
     31 F          64.7775   92.9087   11.0252 F       1  UNL1       -0.2042
     32 C          63.3708   90.8546   11.7683 C.ar    1  UNL1        0.0296
     33 C          63.0926   89.7587   12.7539 C.ar    1  UNL1        0.0020
     34 N          63.3931   84.5664   15.0549 N.3     1  UNL1       -0.2982
     35 H          63.7528   84.5582   14.1005 H       1  UNL1        0.1232
     36 C          62.0912   82.3964   14.4666 C.3     1  UNL1        0.0185
     37 C          62.1152   83.7811   15.0429 C.3     1  UNL1        0.0686
@<TRIPOS>BOND
     1    36    37    1
     2    37    34    1
     3    21    34    1
     4    21    22    1
     5    22    23    1
     6    23    24    1
     7    24    25    2
     8    25    27    1
     9    27    28   ar
    10    28    29   ar
    11    29    30   ar
    12    30    31    1
    13    30    32   ar
    14    32    33   ar
    15    25    26    1
    16    26    20    1
    17    20     1    1
    18     1     2    1
    19     2     3   ar
    20     3     4   ar
    21     4     5    1
    22     4     6   ar
    23     6    10    1
    24    10    11    2
    25    10    12    2
    26    10    13    1
    27    13    15    1
    28    15    16   ar
    29    16    17   ar
    30    17    18   ar
    31    18    19   ar
    32     6     7   ar
    33     7     8   ar
    34     8     9    1
    35    26    21    1
    36     8     2   ar
    37    33    27   ar
    38    19    15   ar
    39    34    35    1
    40    13    14    1
