@<TRIPOS>MOLECULE
*****
 44 47 0 0 0
SMALL
GASTEIGER

@<TRIPOS>ATOM
      1 C          62.1242   87.0230   10.6490 C.ar    1  UNL1        0.0703
      2 C          62.1609   88.4855   10.9801 C.ar    1  UNL1        0.0465
      3 C          61.5197   89.4796   10.0579 C.3     1  UNL1        0.0503
      4 N          62.8388   88.9539   12.2336 N.ar    1  UNL1       -0.2806
      5 C          63.4800   87.9598   13.1559 C.ar    1  UNL1        0.3338
      6 O          63.9494   88.1513   13.9993 O.2     1  UNL1       -0.2462
      7 N          63.4433   86.4972   12.8247 N.ar    1  UNL1       -0.2470
      8 C          62.7654   86.0288   11.5713 C.ar    1  UNL1        0.2654
      9 O          62.7287   84.5663   11.2401 O.2     1  UNL1       -0.2668
     10 C          61.5361   85.2944    7.1253 C.ar    1  UNL1        0.1660
     11 C          60.0906   85.6177    6.8888 C.ar    1  UNL1        0.0392
     12 C          59.3229   86.4094    7.9056 C.ar    1  UNL1        0.0033
     13 C          60.0008   86.8778    9.1590 C.ar    1  UNL1        0.0026
     14 C          61.4463   86.5545    9.3956 C.ar    1  UNL1        0.0362
     15 C          62.2139   85.7628    8.3787 C.ar    1  UNL1        0.1739
     16 F          63.6595   85.4396    8.6154 F       1  UNL1       -0.2010
     17 C          61.6535   84.1140    4.8139 C.3     1  UNL1        0.2526
     18 O          62.3037   84.5027    6.1085 O.3     1  UNL1       -0.4692
     19 C          62.8755   90.4164   12.5647 C.3     1  UNL1        0.1391
     20 C          64.1069   91.2211   12.2714 C.ar    1  UNL1        0.0319
     21 C          64.3702   91.7080   10.8773 C.ar    1  UNL1        0.1379
     22 F          63.8089   91.5607   10.0825 F       1  UNL1       -0.2044
     23 C          65.6017   92.5127   10.5839 C.ar    1  UNL1        0.0294
     24 C          66.5698   92.8305   11.6847 C.ar    1  UNL1        0.0022
     25 C          66.3065   92.3436   13.0788 C.ar    1  UNL1        0.0037
     26 C          65.0751   91.5389   13.3722 C.ar    1  UNL1        0.0714
     27 C          64.8118   91.0520   14.7663 C.3     1  UNL1        0.4184
     28 F          64.5485   90.5651   16.1605 F       1  UNL1       -0.1659
     29 F          63.4758   91.7339   14.7522 F       1  UNL1       -0.1659
     30 F          66.1478   90.3701   14.7805 F       1  UNL1       -0.1659
     31 C          64.0845   85.5031   13.7469 C.3     1  UNL1        0.1337
     32 C          63.2308   84.6028   14.5899 C.3     1  UNL1        0.1002
     33 C          62.9721   83.1909   14.1547 C.ar    1  UNL1       -0.0061
     34 C          63.9925   82.4605   13.3329 C.ar    1  UNL1       -0.0029
     35 C          63.7338   81.0485   12.8976 C.ar    1  UNL1       -0.0003
     36 C          62.4548   80.3669   13.2842 C.ar    1  UNL1       -0.0000
     37 C          61.4343   81.0973   14.1061 C.ar    1  UNL1       -0.0003
     38 C          61.6930   82.5093   14.5413 C.ar    1  UNL1       -0.0029
     39 N          62.6357   85.1146   15.8683 N.3     1  UNL1       -0.2888
     40 H          62.3707   84.2971   16.4177 H       1  UNL1        0.1239
     41 C          63.4439   85.9992   16.7705 C.3     1  UNL1        0.1112
     42 C          62.7806   87.1239   17.5088 C.2     1  UNL1        0.0663
     43 O          62.4701   86.9822   18.9694 O.co2   1  UNL1       -0.5477
     44 O          62.4279   88.3903   16.7864 O.co2   1  UNL1       -0.5477
@<TRIPOS>UNITY_ATOM_ATTR
43 1
charge -1
@<TRIPOS>BOND
     1    17    18    1
     2    18    10    1
     3    10    11   ar
     4    11    12   ar
     5    12    13   ar
     6    13    14   ar
     7    14     1    1
     8     1     2   ar
     9     2     3    1
    10     2     4   ar
    11     4    19    1
    12    19    20    1
    13    20    21   ar
    14    21    22    1
    15    21    23   ar
    16    23    24   ar
    17    24    25   ar
    18    25    26   ar
    19    26    27    1
    20    27    28    1
    21    27    29    1
    22    27    30    1
    23     4     5   ar
    24     5     6    2
    25     5     7   ar
    26     7    31    1
    27    32    31    1
    28    32    39    1
    29    39    41    1
    30    41    42    1
    31    42    43   ar
    32    42    44   ar
    33    32    33    1
    34    33    34   ar
    35    34    35   ar
    36    35    36   ar
    37    36    37   ar
    38    37    38   ar
    39     7     8   ar
    40     8     9    2
    41    14    15   ar
    42    15    16    1
    43    15    10   ar
    44     8     1   ar
    45    26    20   ar
    46    38    33   ar
    47    39    40    1
@<TRIPOS>MOLECULE
*****
 44 47 0 0 0
SMALL
GASTEIGER

@<TRIPOS>ATOM
      1 C          63.8458   90.0336   13.4972 C.ar    1  UNL1        0.0703
      2 C          64.8467   91.1507   13.4922 C.ar    1  UNL1        0.0465
      3 C          65.6871   91.4102   14.7073 C.3     1  UNL1        0.0503
      4 N          65.0074   92.0084   12.2721 N.ar    1  UNL1       -0.2806
      5 C          64.1671   91.7488   11.0570 C.ar    1  UNL1        0.3338
      6 O          64.1867   92.2437   10.2066 O.2     1  UNL1       -0.2462
      7 N          63.1661   90.6316   11.0620 N.ar    1  UNL1       -0.2470
      8 C          63.0054   89.7741   12.2821 C.ar    1  UNL1        0.2654
      9 O          62.0044   88.6569   12.2871 O.2     1  UNL1       -0.2668
     10 C          63.8229   86.8500   15.8667 C.ar    1  UNL1        0.1660
     11 C          63.3638   87.4606   17.1575 C.ar    1  UNL1        0.0392
     12 C          63.0653   88.9289   17.2282 C.ar    1  UNL1        0.0033
     13 C          63.2260   89.7866   16.0082 C.ar    1  UNL1        0.0026
     14 C          63.6851   89.1759   14.7174 C.ar    1  UNL1        0.0362
     15 C          63.9836   87.7076   14.6466 C.ar    1  UNL1        0.1739
     16 F          64.4427   87.0970   13.3557 F       1  UNL1       -0.2010
     17 C          63.0610   84.4217   15.3445 C.3     1  UNL1        0.2526
     18 O          64.1214   85.3817   15.7959 O.3     1  UNL1       -0.4692
     19 C          66.0084   93.1255   12.2671 C.3     1  UNL1        0.1391
     20 C          66.8256   93.3947   11.0384 C.ar    1  UNL1        0.0319
     21 C          67.7311   92.3311   10.4920 C.ar    1  UNL1        0.1379
     22 F          67.8682   91.4264   10.8542 F       1  UNL1       -0.2044
     23 C          68.5483   92.6004    9.2632 C.ar    1  UNL1        0.0294
     24 C          68.4600   93.9333    8.5810 C.ar    1  UNL1        0.0022
     25 C          67.5544   94.9970    9.1275 C.ar    1  UNL1        0.0037
     26 C          66.7372   94.7277   10.3561 C.ar    1  UNL1        0.0714
     27 C          65.8317   95.7914   10.9026 C.3     1  UNL1        0.4184
     28 F          64.9262   96.8551   11.4491 F       1  UNL1       -0.1659
     29 F          64.7193   95.2937   10.0280 F       1  UNL1       -0.1659
     30 F          66.9441   96.2891   11.7772 F       1  UNL1       -0.1659
     31 C          62.3257   90.3721    9.8469 C.3     1  UNL1        0.1337
     32 C          61.0182   89.6493    9.9797 C.3     1  UNL1        0.1002
     33 C          60.7595   88.4123    9.1717 C.ar    1  UNL1       -0.0061
     34 C          59.6042   88.3687    8.2161 C.ar    1  UNL1       -0.0029
     35 C          59.3455   87.1317    7.4080 C.ar    1  UNL1       -0.0003
     36 C          60.2422   85.9383    7.5556 C.ar    1  UNL1       -0.0000
     37 C          61.3976   85.9819    8.5112 C.ar    1  UNL1       -0.0003
     38 C          61.6562   87.2189    9.3193 C.ar    1  UNL1       -0.0029
     39 N          59.9691   90.1635   10.9207 N.3     1  UNL1       -0.2888
     40 H          59.4998   90.9344   10.4455 H       1  UNL1        0.1239
     41 C          58.8943   89.2442   11.4204 C.3     1  UNL1        0.1112
     42 C          58.6287   89.1312   12.8923 C.2     1  UNL1        0.0663
     43 O          57.3162   88.5917   13.3783 O.co2   1  UNL1       -0.5477
     44 O          59.6756   89.5577   13.8783 O.co2   1  UNL1       -0.5477
@<TRIPOS>UNITY_ATOM_ATTR
43 1
charge -1
@<TRIPOS>BOND
     1    17    18    1
     2    18    10    1
     3    10    11   ar
     4    11    12   ar
     5    12    13   ar
     6    13    14   ar
     7    14     1    1
     8     1     2   ar
     9     2     3    1
    10     2     4   ar
    11     4    19    1
    12    19    20    1
    13    20    21   ar
    14    21    22    1
    15    21    23   ar
    16    23    24   ar
    17    24    25   ar
    18    25    26   ar
    19    26    27    1
    20    27    28    1
    21    27    29    1
    22    27    30    1
    23     4     5   ar
    24     5     6    2
    25     5     7   ar
    26     7    31    1
    27    32    31    1
    28    32    39    1
    29    39    41    1
    30    41    42    1
    31    42    43   ar
    32    42    44   ar
    33    32    33    1
    34    33    34   ar
    35    34    35   ar
    36    35    36   ar
    37    36    37   ar
    38    37    38   ar
    39     7     8   ar
    40     8     9    2
    41    14    15   ar
    42    15    16    1
    43    15    10   ar
    44     8     1   ar
    45    26    20   ar
    46    38    33   ar
    47    39    40    1
@<TRIPOS>MOLECULE
*****
 44 47 0 0 0
SMALL
GASTEIGER

@<TRIPOS>ATOM
      1 C          62.3494   88.1459   10.9429 C.ar    1  UNL1        0.0703
      2 C          62.9697   87.2944   12.0107 C.ar    1  UNL1        0.0465
      3 C          62.7385   85.8123   12.0168 C.3     1  UNL1        0.0503
      4 N          63.8212   87.9250   13.0725 N.ar    1  UNL1       -0.2806
      5 C          64.0524   89.4071   13.0664 C.ar    1  UNL1        0.3338
      6 O          64.5888   89.9255   13.7082 O.2     1  UNL1       -0.2462
      7 N          63.4320   90.2586   11.9986 N.ar    1  UNL1       -0.2470
      8 C          62.5805   89.6279   10.9369 C.ar    1  UNL1        0.2654
      9 O          61.9602   90.4794    9.8690 O.2     1  UNL1       -0.2668
     10 C          61.2732   86.0004    7.7824 C.ar    1  UNL1        0.1660
     11 C          59.7950   86.2541    7.7576 C.ar    1  UNL1        0.0392
     12 C          59.1683   87.1383    8.7946 C.ar    1  UNL1        0.0033
     13 C          60.0197   87.7689    9.8564 C.ar    1  UNL1        0.0026
     14 C          61.4979   87.5153    9.8811 C.ar    1  UNL1        0.0362
     15 C          62.1246   86.6310    8.8442 C.ar    1  UNL1        0.1739
     16 F          63.6028   86.3774    8.8690 F       1  UNL1       -0.2010
     17 C          61.0706   84.0860    6.0378 C.3     1  UNL1        0.2526
     18 O          61.8999   85.1162    6.7454 O.3     1  UNL1       -0.4692
     19 C          64.4415   87.0736   14.1403 C.3     1  UNL1        0.1391
     20 C          63.7478   86.9006   15.4589 C.ar    1  UNL1        0.0319
     21 C          63.5144   88.0881   16.3451 C.ar    1  UNL1        0.1379
     22 F          63.7713   89.0209   16.1653 F       1  UNL1       -0.2044
     23 C          62.8206   87.9150   17.6637 C.ar    1  UNL1        0.0294
     24 C          62.3602   86.5545   18.0961 C.ar    1  UNL1        0.0022
     25 C          62.5936   85.3670   17.2099 C.ar    1  UNL1        0.0037
     26 C          63.2873   85.5400   15.8913 C.ar    1  UNL1        0.0714
     27 C          63.5207   84.3525   15.0051 C.3     1  UNL1        0.4184
     28 F          63.7541   83.1650   14.1190 F       1  UNL1       -0.1659
     29 F          65.0019   84.5150   15.1774 F       1  UNL1       -0.1659
     30 F          62.0396   84.1900   14.8329 F       1  UNL1       -0.1659
     31 C          63.6631   91.7406   11.9925 C.3     1  UNL1        0.1337
     32 C          65.0059   92.2918   12.3707 C.3     1  UNL1        0.1002
     33 C          65.9865   92.6767   11.3028 C.ar    1  UNL1       -0.0061
     34 C          67.1992   91.8288   11.0573 C.ar    1  UNL1       -0.0029
     35 C          68.1798   92.2136    9.9894 C.ar    1  UNL1       -0.0003
     36 C          67.9476   93.4464    9.1670 C.ar    1  UNL1       -0.0000
     37 C          66.7348   94.2943    9.4125 C.ar    1  UNL1       -0.0003
     38 C          65.7543   93.9095   10.4804 C.ar    1  UNL1       -0.0029
     39 N          65.3682   92.4582   13.8168 N.3     1  UNL1       -0.2888
     40 H          65.6186   91.5331   14.1659 H       1  UNL1        0.1239
     41 C          66.4804   93.3849   14.2095 C.3     1  UNL1        0.1112
     42 C          67.6749   92.8535   14.9448 C.2     1  UNL1        0.0663
     43 O          67.5935   92.5946   16.4200 O.co2   1  UNL1       -0.5477
     44 O          68.9510   92.5811   14.2048 O.co2   1  UNL1       -0.5477
@<TRIPOS>UNITY_ATOM_ATTR
43 1
charge -1
@<TRIPOS>BOND
     1    17    18    1
     2    18    10    1
     3    10    11   ar
     4    11    12   ar
     5    12    13   ar
     6    13    14   ar
     7    14     1    1
     8     1     2   ar
     9     2     3    1
    10     2     4   ar
    11     4    19    1
    12    19    20    1
    13    20    21   ar
    14    21    22    1
    15    21    23   ar
    16    23    24   ar
    17    24    25   ar
    18    25    26   ar
    19    26    27    1
    20    27    28    1
    21    27    29    1
    22    27    30    1
    23     4     5   ar
    24     5     6    2
    25     5     7   ar
    26     7    31    1
    27    32    31    1
    28    32    39    1
    29    39    41    1
    30    41    42    1
    31    42    43   ar
    32    42    44   ar
    33    32    33    1
    34    33    34   ar
    35    34    35   ar
    36    35    36   ar
    37    36    37   ar
    38    37    38   ar
    39     7     8   ar
    40     8     9    2
    41    14    15   ar
    42    15    16    1
    43    15    10   ar
    44     8     1   ar
    45    26    20   ar
    46    38    33   ar
    47    39    40    1
@<TRIPOS>MOLECULE
*****
 44 47 0 0 0
SMALL
GASTEIGER

@<TRIPOS>ATOM
      1 C          62.1160   87.2847   11.0315 C.ar    1  UNL1        0.0703
      2 C          62.2744   88.7076   11.4788 C.ar    1  UNL1        0.0465
      3 C          61.6502   89.8171   10.6855 C.3     1  UNL1        0.0503
      4 N          63.0572   89.0212   12.7194 N.ar    1  UNL1       -0.2806
      5 C          63.6815   87.9117   13.5127 C.ar    1  UNL1        0.3338
      6 O          64.2127   87.9989   14.3365 O.2     1  UNL1       -0.2462
      7 N          63.5230   86.4887   13.0654 N.ar    1  UNL1       -0.2470
      8 C          62.7403   86.1752   11.8249 C.ar    1  UNL1        0.2654
      9 O          62.5818   84.7522   11.3775 O.2     1  UNL1       -0.2668
     10 C          61.2038   85.9239    7.4168 C.ar    1  UNL1        0.1660
     11 C          59.7679   86.3440    7.3098 C.ar    1  UNL1        0.0392
     12 C          59.1146   87.0777    8.4433 C.ar    1  UNL1        0.0033
     13 C          59.8973   87.3912    9.6839 C.ar    1  UNL1        0.0026
     14 C          61.3332   86.9711    9.7909 C.ar    1  UNL1        0.0362
     15 C          61.9865   86.2374    8.6574 C.ar    1  UNL1        0.1739
     16 F          63.4226   85.8173    8.7644 F       1  UNL1       -0.2010
     17 C          61.3674   83.8280    5.8902 C.3     1  UNL1        0.2526
     18 O          61.8571   85.1902    6.2832 O.3     1  UNL1       -0.4692
     19 C          63.2156   90.4441   13.1666 C.3     1  UNL1        0.1391
     20 C          64.5856   91.0405   13.2991 C.ar    1  UNL1        0.0319
     21 C          65.3648   90.8553   14.5674 C.ar    1  UNL1        0.1379
     22 F          65.0793   90.3654   15.3717 F       1  UNL1       -0.2044
     23 C          66.7347   91.4517   14.6998 C.ar    1  UNL1        0.0294
     24 C          67.3255   92.2333   13.5640 C.ar    1  UNL1        0.0022
     25 C          66.5463   92.4185   12.2957 C.ar    1  UNL1        0.0037
     26 C          65.1764   91.8221   12.1632 C.ar    1  UNL1        0.0714
     27 C          64.3972   92.0072   10.8949 C.3     1  UNL1        0.4184
     28 F          63.6180   92.1924    9.6266 F       1  UNL1       -0.1659
     29 F          63.1410   92.1919   11.6936 F       1  UNL1       -0.1659
     30 F          65.6533   91.8226   10.0962 F       1  UNL1       -0.1659
     31 C          64.1473   85.3792   13.8587 C.3     1  UNL1        0.1337
     32 C          63.2813   84.4395   14.6442 C.3     1  UNL1        0.1002
     33 C          62.9959   83.0646   14.1169 C.ar    1  UNL1       -0.0061
     34 C          61.7834   82.3175   14.5876 C.ar    1  UNL1       -0.0029
     35 C          61.4980   80.9425   14.0603 C.ar    1  UNL1       -0.0003
     36 C          62.4252   80.3146   13.0623 C.ar    1  UNL1       -0.0000
     37 C          63.6378   81.0617   12.5916 C.ar    1  UNL1       -0.0003
     38 C          63.9232   82.4366   13.1189 C.ar    1  UNL1       -0.0029
     39 N          62.7006   84.8748   15.9570 N.3     1  UNL1       -0.2888
     40 H          62.5565   84.0298   16.5098 H       1  UNL1        0.1239
     41 C          63.4520   85.8385   16.8268 C.3     1  UNL1        0.1112
     42 C          62.7197   86.9438   17.5281 C.2     1  UNL1        0.0663
     43 O          62.2084   88.1182   16.7474 O.co2   1  UNL1       -0.5477
     44 O          62.4985   86.8748   19.0102 O.co2   1  UNL1       -0.5477
@<TRIPOS>UNITY_ATOM_ATTR
43 1
charge -1
@<TRIPOS>BOND
     1    17    18    1
     2    18    10    1
     3    10    11   ar
     4    11    12   ar
     5    12    13   ar
     6    13    14   ar
     7    14     1    1
     8     1     2   ar
     9     2     3    1
    10     2     4   ar
    11     4    19    1
    12    19    20    1
    13    20    21   ar
    14    21    22    1
    15    21    23   ar
    16    23    24   ar
    17    24    25   ar
    18    25    26   ar
    19    26    27    1
    20    27    28    1
    21    27    29    1
    22    27    30    1
    23     4     5   ar
    24     5     6    2
    25     5     7   ar
    26     7    31    1
    27    32    31    1
    28    32    39    1
    29    39    41    1
    30    41    42    1
    31    42    43   ar
    32    42    44   ar
    33    32    33    1
    34    33    34   ar
    35    34    35   ar
    36    35    36   ar
    37    36    37   ar
    38    37    38   ar
    39     7     8   ar
    40     8     9    2
    41    14    15   ar
    42    15    16    1
    43    15    10   ar
    44     8     1   ar
    45    26    20   ar
    46    38    33   ar
    47    39    40    1
@<TRIPOS>MOLECULE
*****
 44 47 0 0 0
SMALL
GASTEIGER

@<TRIPOS>ATOM
      1 C          62.2941   87.9406   10.8926 C.ar    1  UNL1        0.0703
      2 C          62.8928   87.0568   11.9465 C.ar    1  UNL1        0.0465
      3 C          62.6725   85.5740   11.8956 C.3     1  UNL1        0.0503
      4 N          63.7117   87.6559   13.0512 N.ar    1  UNL1       -0.2806
      5 C          63.9320   89.1388   13.1021 C.ar    1  UNL1        0.3338
      6 O          64.4478   89.6382   13.7751 O.2     1  UNL1       -0.2462
      7 N          63.3334   90.0226   12.0482 N.ar    1  UNL1       -0.2470
      8 C          62.5144   89.4234   10.9435 C.ar    1  UNL1        0.2654
      9 O          61.9158   90.3072    9.8896 O.2     1  UNL1       -0.2668
     10 C          61.3109   85.8724    7.6514 C.ar    1  UNL1        0.1660
     11 C          59.8374   86.1433    7.5784 C.ar    1  UNL1        0.0392
     12 C          59.1828   87.0133    8.6102 C.ar    1  UNL1        0.0033
     13 C          60.0017   87.6124    9.7149 C.ar    1  UNL1        0.0026
     14 C          61.4752   87.3415    9.7879 C.ar    1  UNL1        0.0362
     15 C          62.1298   86.4715    8.7561 C.ar    1  UNL1        0.1739
     16 F          63.6033   86.2006    8.8291 F       1  UNL1       -0.2010
     17 C          61.1403   84.0420    5.8155 C.3     1  UNL1        0.2526
     18 O          61.9655   85.0024    6.6196 O.3     1  UNL1       -0.4692
     19 C          64.3104   86.7722   14.1050 C.3     1  UNL1        0.1391
     20 C          63.6666   86.6746   15.4563 C.ar    1  UNL1        0.0319
     21 C          63.5396   87.8968   16.3166 C.ar    1  UNL1        0.1379
     22 F          63.8405   88.8082   16.0990 F       1  UNL1       -0.2044
     23 C          62.8959   87.7992   17.6680 C.ar    1  UNL1        0.0294
     24 C          62.3792   86.4795   18.1590 C.ar    1  UNL1        0.0022
     25 C          62.5062   85.2572   17.2988 C.ar    1  UNL1        0.0037
     26 C          63.1499   85.3548   15.9475 C.ar    1  UNL1        0.0714
     27 C          63.2769   84.1326   15.0872 C.3     1  UNL1        0.4184
     28 F          63.4039   82.9104   14.2269 F       1  UNL1       -0.1659
     29 F          61.8135   84.2065   14.7661 F       1  UNL1       -0.1659
     30 F          64.7403   84.0587   15.4083 F       1  UNL1       -0.1659
     31 C          63.5537   91.5054   12.0991 C.3     1  UNL1        0.1337
     32 C          64.9219   92.0692   11.8544 C.3     1  UNL1        0.1002
     33 C          65.9088   92.1582   12.9805 C.ar    1  UNL1       -0.0061
     34 C          65.4446   92.5326   14.3568 C.ar    1  UNL1       -0.0029
     35 C          66.4315   92.6216   15.4829 C.ar    1  UNL1       -0.0003
     36 C          67.8826   92.3363   15.2327 C.ar    1  UNL1       -0.0000
     37 C          68.3470   91.9619   13.8563 C.ar    1  UNL1       -0.0003
     38 C          67.3601   91.8729   12.7302 C.ar    1  UNL1       -0.0029
     39 N          65.3034   92.5440   10.4835 N.3     1  UNL1       -0.2888
     40 H          64.6047   92.1743    9.8389 H       1  UNL1        0.1239
     41 C          65.4167   94.0132   10.2032 C.3     1  UNL1        0.1112
     42 C          66.7324   94.7112   10.3806 C.2     1  UNL1        0.0663
     43 O          67.9998   94.0491    9.9275 O.co2   1  UNL1       -0.5477
     44 O          66.7809   96.0715   11.0111 O.co2   1  UNL1       -0.5477
@<TRIPOS>UNITY_ATOM_ATTR
43 1
charge -1
@<TRIPOS>BOND
     1    17    18    1
     2    18    10    1
     3    10    11   ar
     4    11    12   ar
     5    12    13   ar
     6    13    14   ar
     7    14     1    1
     8     1     2   ar
     9     2     3    1
    10     2     4   ar
    11     4    19    1
    12    19    20    1
    13    20    21   ar
    14    21    22    1
    15    21    23   ar
    16    23    24   ar
    17    24    25   ar
    18    25    26   ar
    19    26    27    1
    20    27    28    1
    21    27    29    1
    22    27    30    1
    23     4     5   ar
    24     5     6    2
    25     5     7   ar
    26     7    31    1
    27    32    31    1
    28    32    39    1
    29    39    41    1
    30    41    42    1
    31    42    43   ar
    32    42    44   ar
    33    32    33    1
    34    33    34   ar
    35    34    35   ar
    36    35    36   ar
    37    36    37   ar
    38    37    38   ar
    39     7     8   ar
    40     8     9    2
    41    14    15   ar
    42    15    16    1
    43    15    10   ar
    44     8     1   ar
    45    26    20   ar
    46    38    33   ar
    47    39    40    1
@<TRIPOS>MOLECULE
*****
 44 47 0 0 0
SMALL
GASTEIGER

@<TRIPOS>ATOM
      1 C          62.3045   87.5917   11.2281 C.ar    1  UNL1        0.0703
      2 C          62.9221   86.5585   12.1232 C.ar    1  UNL1        0.0465
      3 C          62.7177   85.1001   11.8376 C.3     1  UNL1        0.0503
      4 N          63.7440   86.9836   13.3038 N.ar    1  UNL1       -0.2806
      5 C          63.9483   88.4419   13.5893 C.ar    1  UNL1        0.3338
      6 O          64.4645   88.8338   14.3299 O.2     1  UNL1       -0.2462
      7 N          63.3307   89.4751   12.6942 N.ar    1  UNL1       -0.2470
      8 C          62.5088   89.0500   11.5137 C.ar    1  UNL1        0.2654
      9 O          61.8912   90.0832   10.6186 O.2     1  UNL1       -0.2668
     10 C          61.2894   85.9425    7.7641 C.ar    1  UNL1        0.1660
     11 C          59.8389   86.3163    7.6864 C.ar    1  UNL1        0.0392
     12 C          59.2102   87.1153    8.7893 C.ar    1  UNL1        0.0033
     13 C          60.0320   87.5404    9.9699 C.ar    1  UNL1        0.0026
     14 C          61.4826   87.1665   10.0475 C.ar    1  UNL1        0.0362
     15 C          62.1113   86.3676    8.9446 C.ar    1  UNL1        0.1739
     16 F          63.5619   85.9937    9.0223 F       1  UNL1       -0.2010
     17 C          61.1219   84.0891    5.9511 C.3     1  UNL1        0.2526
     18 O          61.9181   85.1435    6.6612 O.3     1  UNL1       -0.4692
     19 C          64.3616   85.9504   14.1988 C.3     1  UNL1        0.1391
     20 C          63.8668   84.5348   14.1629 C.ar    1  UNL1        0.0319
     21 C          64.4416   83.5643   13.1742 C.ar    1  UNL1        0.1379
     22 F          65.1418   83.7438   12.5064 F       1  UNL1       -0.2044
     23 C          63.9467   82.1486   13.1384 C.ar    1  UNL1        0.0294
     24 C          62.8772   81.7037   14.0912 C.ar    1  UNL1        0.0022
     25 C          62.3024   82.6742   15.0800 C.ar    1  UNL1        0.0037
     26 C          62.7972   84.0898   15.1158 C.ar    1  UNL1        0.0714
     27 C          62.2224   85.0604   16.1045 C.3     1  UNL1        0.4184
     28 F          61.6476   86.0310   17.0933 F       1  UNL1       -0.1659
     29 F          60.8903   84.9676   15.4212 F       1  UNL1       -0.1659
     30 F          63.5545   85.1532   16.7879 F       1  UNL1       -0.1659
     31 C          63.5351   90.9335   12.9797 C.3     1  UNL1        0.1337
     32 C          64.8326   91.5938   12.6187 C.3     1  UNL1        0.1002
     33 C          65.8438   91.8937   13.6853 C.ar    1  UNL1       -0.0061
     34 C          65.3913   92.2128   15.0793 C.ar    1  UNL1       -0.0029
     35 C          66.4024   92.5127   16.1459 C.ar    1  UNL1       -0.0003
     36 C          67.8661   92.4935   15.8184 C.ar    1  UNL1       -0.0000
     37 C          68.3187   92.1744   14.4243 C.ar    1  UNL1       -0.0003
     38 C          67.3075   91.8745   13.3577 C.ar    1  UNL1       -0.0029
     39 N          65.1190   91.9542   11.1910 N.3     1  UNL1       -0.2888
     40 H          64.2972   91.6868   10.6493 H       1  UNL1        0.1239
     41 C          65.4357   93.3739   10.8250 C.3     1  UNL1        0.1112
     42 C          66.7957   93.7276   10.3003 C.2     1  UNL1        0.0663
     43 O          67.6486   92.6746    9.6570 O.co2   1  UNL1       -0.5477
     44 O          67.3029   95.1343   10.4188 O.co2   1  UNL1       -0.5477
@<TRIPOS>UNITY_ATOM_ATTR
43 1
charge -1
@<TRIPOS>BOND
     1    17    18    1
     2    18    10    1
     3    10    11   ar
     4    11    12   ar
     5    12    13   ar
     6    13    14   ar
     7    14     1    1
     8     1     2   ar
     9     2     3    1
    10     2     4   ar
    11     4    19    1
    12    19    20    1
    13    20    21   ar
    14    21    22    1
    15    21    23   ar
    16    23    24   ar
    17    24    25   ar
    18    25    26   ar
    19    26    27    1
    20    27    28    1
    21    27    29    1
    22    27    30    1
    23     4     5   ar
    24     5     6    2
    25     5     7   ar
    26     7    31    1
    27    32    31    1
    28    32    39    1
    29    39    41    1
    30    41    42    1
    31    42    43   ar
    32    42    44   ar
    33    32    33    1
    34    33    34   ar
    35    34    35   ar
    36    35    36   ar
    37    36    37   ar
    38    37    38   ar
    39     7     8   ar
    40     8     9    2
    41    14    15   ar
    42    15    16    1
    43    15    10   ar
    44     8     1   ar
    45    26    20   ar
    46    38    33   ar
    47    39    40    1
@<TRIPOS>MOLECULE
*****
 44 47 0 0 0
SMALL
GASTEIGER

@<TRIPOS>ATOM
      1 C          63.9459   89.1509   13.8981 C.ar    1  UNL1        0.0703
      2 C          63.4015   89.5088   12.5470 C.ar    1  UNL1        0.0465
      3 C          63.1924   90.9481   12.1800 C.3     1  UNL1        0.0503
      4 N          63.0662   88.4275   11.5629 N.ar    1  UNL1       -0.2806
      5 C          63.2754   86.9882   11.9300 C.ar    1  UNL1        0.3338
      6 O          63.0919   86.2011   11.3686 O.2     1  UNL1       -0.2462
      7 N          63.8198   86.6303   13.2812 N.ar    1  UNL1       -0.2470
      8 C          64.1550   87.7116   14.2652 C.ar    1  UNL1        0.2654
      9 O          64.6994   87.3537   15.6164 O.2     1  UNL1       -0.2668
     10 C          65.7934   92.2108   15.6224 C.ar    1  UNL1        0.1660
     11 C          64.9517   92.3948   16.8502 C.ar    1  UNL1        0.0392
     12 C          63.7747   91.4975   17.0941 C.ar    1  UNL1        0.0033
     13 C          63.4394   90.4162   16.1100 C.ar    1  UNL1        0.0026
     14 C          64.2811   90.2322   14.8822 C.ar    1  UNL1        0.0362
     15 C          65.4581   91.1295   14.6384 C.ar    1  UNL1        0.1739
     16 F          66.2999   90.9455   13.4105 F       1  UNL1       -0.2010
     17 C          68.3452   92.6699   15.7882 C.3     1  UNL1        0.2526
     18 O          66.9704   93.1082   15.3786 O.3     1  UNL1       -0.4692
     19 C          62.5219   88.7854   10.2118 C.3     1  UNL1        0.1391
     20 C          61.5217   87.8886    9.5446 C.ar    1  UNL1        0.0319
     21 C          61.9895   86.7595    8.6749 C.ar    1  UNL1        0.1379
     22 F          62.9209   86.5147    8.4721 F       1  UNL1       -0.2044
     23 C          60.9892   85.8626    8.0077 C.ar    1  UNL1        0.0294
     24 C          59.5213   86.0948    8.2102 C.ar    1  UNL1        0.0022
     25 C          59.0534   87.2239    9.0799 C.ar    1  UNL1        0.0037
     26 C          60.0536   88.1207    9.7471 C.ar    1  UNL1        0.0714
     27 C          59.5858   89.2498   10.6168 C.3     1  UNL1        0.4184
     28 F          59.1180   90.3789   11.4865 F       1  UNL1       -0.1659
     29 F          59.4377   88.3009   11.7690 F       1  UNL1       -0.1659
     30 F          59.7340   90.1987    9.4646 F       1  UNL1       -0.1659
     31 C          64.0289   85.1910   13.6483 C.3     1  UNL1        0.1337
     32 C          62.8752   84.3664   14.1372 C.3     1  UNL1        0.1002
     33 C          62.6582   82.9846   13.5955 C.ar    1  UNL1       -0.0061
     34 C          63.1590   82.6282   12.2273 C.ar    1  UNL1       -0.0029
     35 C          62.9419   81.2463   11.6856 C.ar    1  UNL1       -0.0003
     36 C          62.2240   80.2210   12.5121 C.ar    1  UNL1       -0.0000
     37 C          61.7231   80.5774   13.8804 C.ar    1  UNL1       -0.0003
     38 C          61.9402   81.9592   14.4221 C.ar    1  UNL1       -0.0029
     39 N          61.9386   84.9236   15.1679 N.3     1  UNL1       -0.2888
     40 H          61.1114   84.3269   15.1673 H       1  UNL1        0.1239
     41 C          62.3821   85.0476   16.5954 C.3     1  UNL1        0.1112
     42 C          62.1084   86.3093   17.3590 C.2     1  UNL1        0.0663
     43 O          61.0767   87.2781   16.8617 O.co2   1  UNL1       -0.5477
     44 O          62.8664   86.6024   18.6198 O.co2   1  UNL1       -0.5477
@<TRIPOS>UNITY_ATOM_ATTR
43 1
charge -1
@<TRIPOS>BOND
     1    17    18    1
     2    18    10    1
     3    10    11   ar
     4    11    12   ar
     5    12    13   ar
     6    13    14   ar
     7    14     1    1
     8     1     2   ar
     9     2     3    1
    10     2     4   ar
    11     4    19    1
    12    19    20    1
    13    20    21   ar
    14    21    22    1
    15    21    23   ar
    16    23    24   ar
    17    24    25   ar
    18    25    26   ar
    19    26    27    1
    20    27    28    1
    21    27    29    1
    22    27    30    1
    23     4     5   ar
    24     5     6    2
    25     5     7   ar
    26     7    31    1
    27    32    31    1
    28    32    39    1
    29    39    41    1
    30    41    42    1
    31    42    43   ar
    32    42    44   ar
    33    32    33    1
    34    33    34   ar
    35    34    35   ar
    36    35    36   ar
    37    36    37   ar
    38    37    38   ar
    39     7     8   ar
    40     8     9    2
    41    14    15   ar
    42    15    16    1
    43    15    10   ar
    44     8     1   ar
    45    26    20   ar
    46    38    33   ar
    47    39    40    1
@<TRIPOS>MOLECULE
*****
 44 47 0 0 0
SMALL
GASTEIGER

@<TRIPOS>ATOM
      1 C          63.9113   89.9995   13.6133 C.ar    1  UNL1        0.0703
      2 C          64.8467   91.1706   13.6716 C.ar    1  UNL1        0.0465
      3 C          65.5965   91.4695   14.9359 C.3     1  UNL1        0.0503
      4 N          65.0324   92.0430   12.4655 N.ar    1  UNL1       -0.2806
      5 C          64.2826   91.7441   11.2012 C.ar    1  UNL1        0.3338
      6 O          64.3257   92.2443   10.3547 O.2     1  UNL1       -0.2462
      7 N          63.3471   90.5730   11.1429 N.ar    1  UNL1       -0.2470
      8 C          63.1615   89.7007   12.3490 C.ar    1  UNL1        0.2654
      9 O          62.2260   88.5295   12.2908 O.2     1  UNL1       -0.2668
     10 C          63.8613   86.7917   15.9494 C.ar    1  UNL1        0.1660
     11 C          63.3542   87.3826   17.2315 C.ar    1  UNL1        0.0392
     12 C          63.0328   88.8457   17.3075 C.ar    1  UNL1        0.0033
     13 C          63.2185   89.7181   16.1015 C.ar    1  UNL1        0.0026
     14 C          63.7256   89.1272   14.8194 C.ar    1  UNL1        0.0362
     15 C          64.0470   87.6640   14.7434 C.ar    1  UNL1        0.1739
     16 F          64.5541   87.0732   13.4613 F       1  UNL1       -0.2010
     17 C          63.3293   84.4152   15.0443 C.3     1  UNL1        0.2526
     18 O          64.1827   85.3285   15.8734 O.3     1  UNL1       -0.4692
     19 C          65.9678   93.2141   12.5237 C.3     1  UNL1        0.1391
     20 C          66.4758   93.8320   11.2548 C.ar    1  UNL1        0.0319
     21 C          65.8808   95.1149   10.7548 C.ar    1  UNL1        0.1379
     22 F          65.1585   95.6357   11.1737 F       1  UNL1       -0.2044
     23 C          66.3888   95.7328    9.4858 C.ar    1  UNL1        0.0294
     24 C          67.4918   95.0678    8.7170 C.ar    1  UNL1        0.0022
     25 C          68.0869   93.7849    9.2171 C.ar    1  UNL1        0.0037
     26 C          67.5789   93.1670   10.4860 C.ar    1  UNL1        0.0714
     27 C          68.1739   91.8841   10.9861 C.3     1  UNL1        0.4184
     28 F          68.7690   90.6012   11.4862 F       1  UNL1       -0.1659
     29 F          68.2553   92.4607   12.3684 F       1  UNL1       -0.1659
     30 F          68.0926   91.3075    9.6037 F       1  UNL1       -0.1659
     31 C          62.5973   90.2741    9.8786 C.3     1  UNL1        0.1337
     32 C          61.1917   89.7549    9.9452 C.3     1  UNL1        0.1002
     33 C          60.8038   88.5375    9.1593 C.ar    1  UNL1       -0.0061
     34 C          59.6677   88.6060    8.1824 C.ar    1  UNL1       -0.0029
     35 C          59.2798   87.3886    7.3966 C.ar    1  UNL1       -0.0003
     36 C          60.0281   86.1027    7.5876 C.ar    1  UNL1       -0.0000
     37 C          61.1644   86.0342    8.5646 C.ar    1  UNL1       -0.0003
     38 C          61.5522   87.2516    9.3504 C.ar    1  UNL1       -0.0029
     39 N          60.1738   90.4531   10.7976 N.3     1  UNL1       -0.2888
     40 H          59.8229   91.2403   10.2520 H       1  UNL1        0.1239
     41 C          58.9743   89.7044   11.2982 C.3     1  UNL1        0.1112
     42 C          58.8615   89.3550   12.7525 C.2     1  UNL1        0.0663
     43 O          57.6222   88.6863   13.2693 O.co2   1  UNL1       -0.5477
     44 O          59.9881   89.6741   13.6901 O.co2   1  UNL1       -0.5477
@<TRIPOS>UNITY_ATOM_ATTR
43 1
charge -1
@<TRIPOS>BOND
     1    17    18    1
     2    18    10    1
     3    10    11   ar
     4    11    12   ar
     5    12    13   ar
     6    13    14   ar
     7    14     1    1
     8     1     2   ar
     9     2     3    1
    10     2     4   ar
    11     4    19    1
    12    19    20    1
    13    20    21   ar
    14    21    22    1
    15    21    23   ar
    16    23    24   ar
    17    24    25   ar
    18    25    26   ar
    19    26    27    1
    20    27    28    1
    21    27    29    1
    22    27    30    1
    23     4     5   ar
    24     5     6    2
    25     5     7   ar
    26     7    31    1
    27    32    31    1
    28    32    39    1
    29    39    41    1
    30    41    42    1
    31    42    43   ar
    32    42    44   ar
    33    32    33    1
    34    33    34   ar
    35    34    35   ar
    36    35    36   ar
    37    36    37   ar
    38    37    38   ar
    39     7     8   ar
    40     8     9    2
    41    14    15   ar
    42    15    16    1
    43    15    10   ar
    44     8     1   ar
    45    26    20   ar
    46    38    33   ar
    47    39    40    1
@<TRIPOS>MOLECULE
*****
 44 47 0 0 0
SMALL
GASTEIGER

@<TRIPOS>ATOM
      1 C          63.3340   88.0890   13.6696 C.ar    1  UNL1        0.0703
      2 C          64.0354   86.7782   13.8688 C.ar    1  UNL1        0.0465
      3 C          65.1119   86.6535   14.9059 C.3     1  UNL1        0.0503
      4 N          63.6602   85.5919   13.0309 N.ar    1  UNL1       -0.2806
      5 C          62.5837   85.7165   11.9939 C.ar    1  UNL1        0.3338
      6 O          62.2573   85.0103   11.3912 O.2     1  UNL1       -0.2462
      7 N          61.8823   87.0274   11.7947 N.ar    1  UNL1       -0.2470
      8 C          62.2575   88.2136   12.6326 C.ar    1  UNL1        0.2654
      9 O          61.5561   89.5246   12.4334 O.2     1  UNL1       -0.2668
     10 C          64.8532   91.5967   14.7367 C.ar    1  UNL1        0.1660
     11 C          64.4595   91.6478   16.1832 C.ar    1  UNL1        0.0392
     12 C          63.6907   90.5127   16.7919 C.ar    1  UNL1        0.0033
     13 C          63.3156   89.3265   15.9540 C.ar    1  UNL1        0.0026
     14 C          63.7092   89.2753   14.5076 C.ar    1  UNL1        0.0362
     15 C          64.4780   90.4104   13.8989 C.ar    1  UNL1        0.1739
     16 F          64.8716   90.3592   12.4523 F       1  UNL1       -0.2010
     17 C          67.1109   92.6328   13.9758 C.3     1  UNL1        0.2526
     18 O          65.6220   92.7318   14.1280 O.3     1  UNL1       -0.4692
     19 C          64.3616   84.2810   13.2301 C.3     1  UNL1        0.1391
     20 C          63.5688   83.0098   13.3034 C.ar    1  UNL1        0.0319
     21 C          63.7142   81.9722   12.2300 C.ar    1  UNL1        0.1379
     22 F          64.2953   82.0178   11.4370 F       1  UNL1       -0.2044
     23 C          62.9213   80.7010   12.3033 C.ar    1  UNL1        0.0294
     24 C          61.9831   80.4673   13.4500 C.ar    1  UNL1        0.0022
     25 C          61.8377   81.5049   14.5235 C.ar    1  UNL1        0.0037
     26 C          62.6305   82.7761   14.4502 C.ar    1  UNL1        0.0714
     27 C          62.4850   83.8137   15.5237 C.3     1  UNL1        0.4184
     28 F          62.3396   84.8512   16.5971 F       1  UNL1       -0.1659
     29 F          63.7402   83.3146   16.1761 F       1  UNL1       -0.1659
     30 F          61.2299   84.3127   14.8713 F       1  UNL1       -0.1659
     31 C          60.8058   87.1521   10.7576 C.3     1  UNL1        0.1337
     32 C          61.1640   87.4958    9.3422 C.3     1  UNL1        0.1002
     33 C          61.4665   86.4043    8.3589 C.ar    1  UNL1       -0.0061
     34 C          62.8575   85.8528    8.2548 C.ar    1  UNL1       -0.0029
     35 C          63.1600   84.7613    7.2714 C.ar    1  UNL1       -0.0003
     36 C          62.0715   84.2212    6.3921 C.ar    1  UNL1       -0.0000
     37 C          60.6803   84.7726    6.4961 C.ar    1  UNL1       -0.0003
     38 C          60.3779   85.8642    7.4795 C.ar    1  UNL1       -0.0029
     39 N          61.2199   88.9312    8.9101 N.3     1  UNL1       -0.2888
     40 H          61.8611   88.9756    8.1181 H       1  UNL1        0.1239
     41 C          59.9648   89.6377    8.4912 C.3     1  UNL1        0.1112
     42 C          59.2777   89.2524    7.2148 C.2     1  UNL1        0.0663
     43 O          59.6381   89.9407    5.9317 O.co2   1  UNL1       -0.5477
     44 O          58.2301   88.1787    7.2214 O.co2   1  UNL1       -0.5477
@<TRIPOS>UNITY_ATOM_ATTR
43 1
charge -1
@<TRIPOS>BOND
     1    17    18    1
     2    18    10    1
     3    10    11   ar
     4    11    12   ar
     5    12    13   ar
     6    13    14   ar
     7    14     1    1
     8     1     2   ar
     9     2     3    1
    10     2     4   ar
    11     4    19    1
    12    19    20    1
    13    20    21   ar
    14    21    22    1
    15    21    23   ar
    16    23    24   ar
    17    24    25   ar
    18    25    26   ar
    19    26    27    1
    20    27    28    1
    21    27    29    1
    22    27    30    1
    23     4     5   ar
    24     5     6    2
    25     5     7   ar
    26     7    31    1
    27    32    31    1
    28    32    39    1
    29    39    41    1
    30    41    42    1
    31    42    43   ar
    32    42    44   ar
    33    32    33    1
    34    33    34   ar
    35    34    35   ar
    36    35    36   ar
    37    36    37   ar
    38    37    38   ar
    39     7     8   ar
    40     8     9    2
    41    14    15   ar
    42    15    16    1
    43    15    10   ar
    44     8     1   ar
    45    26    20   ar
    46    38    33   ar
    47    39    40    1
