@<TRIPOS>MOLECULE
*****
 27 31 0 0 0
SMALL
GASTEIGER

@<TRIPOS>ATOM
      1 C          59.1128   89.0293    7.0220 C.3     1  UNL1        0.0534
      2 C          59.9452   88.5470    8.1729 C.ar    1  UNL1        0.0730
      3 N          60.5037   89.3978    9.2747 N.ar    1  UNL1       -0.2299
      4 C          61.2690   88.5057   10.2067 C.ar    1  UNL1        0.1604
      5 C          62.0326   88.7890   11.4663 C.ar    1  UNL1        0.0813
      6 C          62.7107   87.6702   12.2000 C.ar    1  UNL1        0.0381
      7 C          62.6251   86.2681   11.6742 C.ar    1  UNL1        0.1034
      8 C          61.8615   85.9847   10.4146 C.ar    1  UNL1        0.1005
      9 N          61.1834   87.1035    9.6809 N.ar    1  UNL1       -0.2905
     10 C          60.3653   87.1290    8.4239 C.ar    1  UNL1        0.0567
     11 C          60.0267   85.9445    7.5682 C.3     1  UNL1        0.0517
     12 N          63.3032   85.1492   12.4080 N.ar    1  UNL1       -0.2064
     13 C          63.5509   83.7686   11.8763 C.ar    1  UNL1        0.2017
     14 N          64.2534   82.9806   12.9419 N.ar    1  UNL1       -0.2004
     15 C          64.4399   83.8742   14.1323 C.ar    1  UNL1        0.2214
     16 N          63.8527   85.2144   13.8022 N.ar    1  UNL1       -0.1408
     17 N          62.1182   90.1913   11.9921 N.pl3   1  UNL1       -0.3282
     18 H          61.3710   90.5694   12.5098 H       1  UNL1        0.1471
     19 C          63.3422   91.0175   11.7292 C.3     1  UNL1        0.0920
     20 C          63.6855   91.6987   10.4377 C.3     1  UNL1        0.0287
     21 C          64.9934   92.4097   10.6219 C.3     1  UNL1        0.0281
     22 C          65.4584   92.1679   12.0274 C.ar    1  UNL1       -0.0245
     23 C          66.6793   92.6201   12.7724 C.ar    1  UNL1       -0.0045
     24 C          66.8796   92.2118   14.2018 C.ar    1  UNL1       -0.0003
     25 C          65.8592   91.3513   14.8861 C.ar    1  UNL1       -0.0003
     26 C          64.6383   90.8992   14.1411 C.ar    1  UNL1       -0.0030
     27 C          64.4380   91.3075   12.7117 C.ar    1  UNL1       -0.0085
@<TRIPOS>BOND
     1     1     2    1
     2     2     3   ar
     3     3     4   ar
     4     4     5   ar
     5     5    17    1
     6    19    17    1
     7    19    20    1
     8    20    21    1
     9    21    22    1
    10    22    23   ar
    11    23    24   ar
    12    24    25   ar
    13    25    26   ar
    14    26    27   ar
    15     5     6   ar
    16     6     7   ar
    17     7    12    1
    18    12    13   ar
    19    13    14   ar
    20    14    15   ar
    21    15    16   ar
    22     7     8   ar
    23     8     9   ar
    24     9    10   ar
    25    10    11    1
    26    10     2   ar
    27     9     4   ar
    28    27    19    1
    29    16    12   ar
    30    27    22   ar
    31    17    18    1
@<TRIPOS>MOLECULE
*****
 27 31 0 0 0
SMALL
GASTEIGER

@<TRIPOS>ATOM
      1 C          66.4200   94.5196   11.1463 C.3     1  UNL1        0.0534
      2 C          65.7256   93.3276   11.7356 C.ar    1  UNL1        0.0730
      3 N          64.7369   92.4461   11.0319 N.ar    1  UNL1       -0.2299
      4 C          64.2983   91.3816   11.9935 C.ar    1  UNL1        0.1604
      5 C          63.3381   90.2376   11.8549 C.ar    1  UNL1        0.0813
      6 C          63.0956   89.3173   13.0142 C.ar    1  UNL1        0.0381
      7 C          63.8132   89.5410   14.3122 C.ar    1  UNL1        0.1034
      8 C          64.7734   90.6851   14.4509 C.ar    1  UNL1        0.1005
      9 N          65.0159   91.6054   13.2915 N.ar    1  UNL1       -0.2905
     10 C          65.8980   92.8081   13.1322 C.ar    1  UNL1        0.0567
     11 C          66.7951   93.3892   14.1846 C.3     1  UNL1        0.0517
     12 N          63.5707   88.6207   15.4717 N.ar    1  UNL1       -0.2064
     13 C          63.0951   89.0266   16.8351 C.ar    1  UNL1        0.2017
     14 N          62.9917   87.7897   17.6773 N.ar    1  UNL1       -0.2004
     15 C          63.4034   86.6192   16.8343 C.ar    1  UNL1        0.2214
     16 N          63.7612   87.1328   15.4712 N.ar    1  UNL1       -0.1408
     17 N          62.6205   90.0138   10.5567 N.pl3   1  UNL1       -0.3282
     18 H          62.4787   90.7654    9.9368 H       1  UNL1        0.1471
     19 C          62.1190   88.6451   10.2033 C.3     1  UNL1        0.0920
     20 C          62.6107   87.3501   10.7787 C.3     1  UNL1        0.0287
     21 C          61.8333   86.2356   10.1434 C.3     1  UNL1        0.0281
     22 C          60.8611   86.8418    9.1752 C.ar    1  UNL1       -0.0245
     23 C          59.8379   86.2303    8.2647 C.ar    1  UNL1       -0.0045
     24 C          58.9912   87.1079    7.3913 C.ar    1  UNL1       -0.0003
     25 C          59.1678   88.5970    7.4283 C.ar    1  UNL1       -0.0003
     26 C          60.1910   89.2085    8.3388 C.ar    1  UNL1       -0.0030
     27 C          61.0377   88.3309    9.2123 C.ar    1  UNL1       -0.0085
@<TRIPOS>BOND
     1     1     2    1
     2     2     3   ar
     3     3     4   ar
     4     4     5   ar
     5     5    17    1
     6    19    17    1
     7    19    20    1
     8    20    21    1
     9    21    22    1
    10    22    23   ar
    11    23    24   ar
    12    24    25   ar
    13    25    26   ar
    14    26    27   ar
    15     5     6   ar
    16     6     7   ar
    17     7    12    1
    18    12    13   ar
    19    13    14   ar
    20    14    15   ar
    21    15    16   ar
    22     7     8   ar
    23     8     9   ar
    24     9    10   ar
    25    10    11    1
    26    10     2   ar
    27     9     4   ar
    28    27    19    1
    29    16    12   ar
    30    27    22   ar
    31    17    18    1
@<TRIPOS>MOLECULE
*****
 27 31 0 0 0
SMALL
GASTEIGER

@<TRIPOS>ATOM
      1 C          64.6583   83.9003   14.5614 C.3     1  UNL1        0.0534
      2 C          63.9297   84.8462   13.6533 C.ar    1  UNL1        0.0730
      3 N          63.8626   86.3372   13.8037 N.ar    1  UNL1       -0.2299
      4 C          63.0317   86.8796   12.6787 C.ar    1  UNL1        0.1604
      5 C          62.6240   88.2765   12.3151 C.ar    1  UNL1        0.0813
      6 C          61.7699   88.5178   11.1059 C.ar    1  UNL1        0.0381
      7 C          61.3236   87.3622   10.2603 C.ar    1  UNL1        0.1034
      8 C          61.7314   85.9652   10.6238 C.ar    1  UNL1        0.1005
      9 N          62.5854   85.7239   11.8331 N.ar    1  UNL1       -0.2905
     10 C          63.1404   84.4672   12.4354 C.ar    1  UNL1        0.0567
     11 C          62.9411   83.0758   11.9117 C.3     1  UNL1        0.0517
     12 N          60.4694   87.6034    9.0510 N.ar    1  UNL1       -0.2064
     13 C          59.8165   86.5484    8.2080 C.ar    1  UNL1        0.2017
     14 N          59.0618   87.2350    7.1084 N.ar    1  UNL1       -0.2004
     15 C          59.2484   88.7145    7.2718 C.ar    1  UNL1        0.2214
     16 N          60.1184   88.9421    8.4724 N.ar    1  UNL1       -0.1408
     17 N          63.0703   89.4322   13.1609 N.pl3   1  UNL1       -0.3282
     18 H          62.8719   89.4422   14.1251 H       1  UNL1        0.1471
     19 C          63.8190   90.5727   12.5374 C.3     1  UNL1        0.0920
     20 C          63.7044   91.0290   11.1131 C.3     1  UNL1        0.0287
     21 C          64.6283   92.1955   10.9242 C.3     1  UNL1        0.0281
     22 C          65.3140   92.4601   12.2318 C.ar    1  UNL1       -0.0245
     23 C          66.3292   93.4848   12.6434 C.ar    1  UNL1       -0.0045
     24 C          66.8443   93.5065   14.0521 C.ar    1  UNL1       -0.0003
     25 C          66.3441   92.5036   15.0491 C.ar    1  UNL1       -0.0003
     26 C          65.3289   91.4789   14.6374 C.ar    1  UNL1       -0.0030
     27 C          64.8138   91.4572   13.2288 C.ar    1  UNL1       -0.0085
@<TRIPOS>BOND
     1     1     2    1
     2     2     3   ar
     3     3     4   ar
     4     4     5   ar
     5     5    17    1
     6    19    17    1
     7    19    20    1
     8    20    21    1
     9    21    22    1
    10    22    23   ar
    11    23    24   ar
    12    24    25   ar
    13    25    26   ar
    14    26    27   ar
    15     5     6   ar
    16     6     7   ar
    17     7    12    1
    18    12    13   ar
    19    13    14   ar
    20    14    15   ar
    21    15    16   ar
    22     7     8   ar
    23     8     9   ar
    24     9    10   ar
    25    10    11    1
    26    10     2   ar
    27     9     4   ar
    28    27    19    1
    29    16    12   ar
    30    27    22   ar
    31    17    18    1
@<TRIPOS>MOLECULE
*****
 27 31 0 0 0
SMALL
GASTEIGER

@<TRIPOS>ATOM
      1 C          64.7639   85.1513   15.7154 C.3     1  UNL1        0.0534
      2 C          64.1405   85.5020   14.3968 C.ar    1  UNL1        0.0730
      3 N          63.5814   86.8402   14.0140 N.ar    1  UNL1       -0.2299
      4 C          63.0621   86.7412   12.6102 C.ar    1  UNL1        0.1604
      5 C          62.4031   87.7445   11.7107 C.ar    1  UNL1        0.0813
      6 C          61.9823   87.3485   10.3265 C.ar    1  UNL1        0.0381
      7 C          62.2205   85.9492    9.8418 C.ar    1  UNL1        0.1034
      8 C          62.8795   84.9458   10.7413 C.ar    1  UNL1        0.1005
      9 N          63.3002   85.3418   12.1255 N.ar    1  UNL1       -0.2905
     10 C          63.9667   84.5759   13.2297 C.ar    1  UNL1        0.0567
     11 C          64.3859   83.1367   13.1760 C.3     1  UNL1        0.0517
     12 N          61.7997   85.5531    8.4575 N.ar    1  UNL1       -0.2064
     13 C          60.4646   85.8249    7.8302 C.ar    1  UNL1        0.2017
     14 N          60.4799   85.2555    6.4426 N.ar    1  UNL1       -0.2004
     15 C          61.8246   84.6317    6.2123 C.ar    1  UNL1        0.2214
     16 N          62.6402   84.8157    7.4576 N.ar    1  UNL1       -0.1408
     17 N          62.1649   89.1440   12.1955 N.pl3   1  UNL1       -0.3282
     18 H          61.3835   89.3429   12.7604 H       1  UNL1        0.1471
     19 C          63.1173   90.2402   11.8197 C.3     1  UNL1        0.0920
     20 C          63.1790   90.9383   10.4935 C.3     1  UNL1        0.0287
     21 C          64.2751   91.9603   10.5582 C.3     1  UNL1        0.0281
     22 C          64.8908   91.8938   11.9243 C.ar    1  UNL1       -0.0245
     23 C          66.0106   92.6639   12.5592 C.ar    1  UNL1       -0.0045
     24 C          66.4149   92.3708   13.9736 C.ar    1  UNL1       -0.0003
     25 C          65.6994   91.3077   14.7532 C.ar    1  UNL1       -0.0003
     26 C          64.5796   90.5376   14.1184 C.ar    1  UNL1       -0.0030
     27 C          64.1753   90.8307   12.7040 C.ar    1  UNL1       -0.0085
@<TRIPOS>BOND
     1     1     2    1
     2     2     3   ar
     3     3     4   ar
     4     4     5   ar
     5     5    17    1
     6    19    17    1
     7    19    20    1
     8    20    21    1
     9    21    22    1
    10    22    23   ar
    11    23    24   ar
    12    24    25   ar
    13    25    26   ar
    14    26    27   ar
    15     5     6   ar
    16     6     7   ar
    17     7    12    1
    18    12    13   ar
    19    13    14   ar
    20    14    15   ar
    21    15    16   ar
    22     7     8   ar
    23     8     9   ar
    24     9    10   ar
    25    10    11    1
    26    10     2   ar
    27     9     4   ar
    28    27    19    1
    29    16    12   ar
    30    27    22   ar
    31    17    18    1
@<TRIPOS>MOLECULE
*****
 27 31 0 0 0
SMALL
GASTEIGER

@<TRIPOS>ATOM
      1 C          62.8262   79.0560   10.2449 C.3     1  UNL1        0.0534
      2 C          62.8753   80.3875   10.9341 C.ar    1  UNL1        0.0730
      3 N          63.0522   81.7194   10.2672 N.ar    1  UNL1       -0.2299
      4 C          63.0424   82.7759   11.3321 C.ar    1  UNL1        0.1604
      5 C          63.1764   84.2684   11.2664 C.ar    1  UNL1        0.0813
      6 C          63.1275   85.0820   12.5257 C.ar    1  UNL1        0.0381
      7 C          62.9447   84.4030   13.8506 C.ar    1  UNL1        0.1034
      8 C          62.8107   82.9104   13.9163 C.ar    1  UNL1        0.1005
      9 N          62.8596   82.0969   12.6570 N.ar    1  UNL1       -0.2905
     10 C          62.7563   80.6208   12.4110 C.ar    1  UNL1        0.0567
     11 C          62.5672   79.5636   13.4582 C.3     1  UNL1        0.0517
     12 N          62.8958   85.2165   15.1099 N.ar    1  UNL1       -0.2064
     13 C          63.7560   86.4039   15.4264 C.ar    1  UNL1        0.2017
     14 N          63.3700   86.9067   16.7859 N.ar    1  UNL1       -0.2004
     15 C          62.2712   86.0300   17.3096 C.ar    1  UNL1        0.2214
     16 N          61.9782   84.9854   16.2738 N.ar    1  UNL1       -0.1408
     17 N          63.3592   84.9475    9.9414 N.pl3   1  UNL1       -0.3282
     18 H          64.2053   84.8452    9.4485 H       1  UNL1        0.1471
     19 C          62.2530   85.7822    9.3675 C.3     1  UNL1        0.0920
     20 C          61.3178   85.3719    8.2688 C.3     1  UNL1        0.0287
     21 C          60.3745   86.5100    8.0138 C.3     1  UNL1        0.0281
     22 C          60.7267   87.6237    8.9549 C.ar    1  UNL1       -0.0245
     23 C          60.1403   88.9893    9.1581 C.ar    1  UNL1       -0.0045
     24 C          60.7148   89.9050   10.1979 C.ar    1  UNL1       -0.0003
     25 C          61.8757   89.4553   11.0345 C.ar    1  UNL1       -0.0003
     26 C          62.4622   88.0897   10.8313 C.ar    1  UNL1       -0.0030
     27 C          61.8876   87.1739    9.7915 C.ar    1  UNL1       -0.0085
@<TRIPOS>BOND
     1     1     2    1
     2     2     3   ar
     3     3     4   ar
     4     4     5   ar
     5     5    17    1
     6    19    17    1
     7    19    20    1
     8    20    21    1
     9    21    22    1
    10    22    23   ar
    11    23    24   ar
    12    24    25   ar
    13    25    26   ar
    14    26    27   ar
    15     5     6   ar
    16     6     7   ar
    17     7    12    1
    18    12    13   ar
    19    13    14   ar
    20    14    15   ar
    21    15    16   ar
    22     7     8   ar
    23     8     9   ar
    24     9    10   ar
    25    10    11    1
    26    10     2   ar
    27     9     4   ar
    28    27    19    1
    29    16    12   ar
    30    27    22   ar
    31    17    18    1
@<TRIPOS>MOLECULE
*****
 27 31 0 0 0
SMALL
GASTEIGER

@<TRIPOS>ATOM
      1 C          64.9992   84.9368   14.9189 C.3     1  UNL1        0.0534
      2 C          64.1642   85.7364   13.9630 C.ar    1  UNL1        0.0730
      3 N          63.8324   87.1938   14.0884 N.ar    1  UNL1       -0.2299
      4 C          62.9775   87.5770   12.9168 C.ar    1  UNL1        0.1604
      5 C          62.3526   88.8797   12.5137 C.ar    1  UNL1        0.0813
      6 C          61.5313   88.9618   11.2613 C.ar    1  UNL1        0.0381
      7 C          61.3349   87.7412   10.4119 C.ar    1  UNL1        0.1034
      8 C          61.9598   86.4385   10.8149 C.ar    1  UNL1        0.1005
      9 N          62.7811   86.3564   12.0674 N.ar    1  UNL1       -0.2905
     10 C          63.5145   85.2189   12.7140 C.ar    1  UNL1        0.0567
     11 C          63.5857   83.8109   12.2015 C.3     1  UNL1        0.0517
     12 N          60.5136   87.8233    9.1593 N.ar    1  UNL1       -0.2064
     13 C          59.9393   86.6616    8.4039 C.ar    1  UNL1        0.2017
     14 N          59.1932   87.2018    7.2201 N.ar    1  UNL1       -0.2004
     15 C          59.3064   88.6974    7.2438 C.ar    1  UNL1        0.2214
     16 N          60.1224   89.0814    8.4424 N.ar    1  UNL1       -0.1408
     17 N          62.5491   90.1004   13.3632 N.pl3   1  UNL1       -0.3282
     18 H          61.7747   90.5321   13.7912 H       1  UNL1        0.1471
     19 C          63.9254   90.6632   13.5605 C.3     1  UNL1        0.0920
     20 C          64.7693   90.5175   14.7921 C.3     1  UNL1        0.0287
     21 C          66.0650   91.2348   14.5537 C.3     1  UNL1        0.0281
     22 C          66.0218   91.8237   13.1748 C.ar    1  UNL1       -0.0245
     23 C          67.0158   92.6360   12.3988 C.ar    1  UNL1       -0.0045
     24 C          66.6874   93.0951   11.0090 C.ar    1  UNL1       -0.0003
     25 C          65.3651   92.7418   10.3953 C.ar    1  UNL1       -0.0003
     26 C          64.3712   91.9295   11.1713 C.ar    1  UNL1       -0.0030
     27 C          64.6995   91.4704   12.5610 C.ar    1  UNL1       -0.0085
@<TRIPOS>BOND
     1     1     2    1
     2     2     3   ar
     3     3     4   ar
     4     4     5   ar
     5     5    17    1
     6    19    17    1
     7    19    20    1
     8    20    21    1
     9    21    22    1
    10    22    23   ar
    11    23    24   ar
    12    24    25   ar
    13    25    26   ar
    14    26    27   ar
    15     5     6   ar
    16     6     7   ar
    17     7    12    1
    18    12    13   ar
    19    13    14   ar
    20    14    15   ar
    21    15    16   ar
    22     7     8   ar
    23     8     9   ar
    24     9    10   ar
    25    10    11    1
    26    10     2   ar
    27     9     4   ar
    28    27    19    1
    29    16    12   ar
    30    27    22   ar
    31    17    18    1
@<TRIPOS>MOLECULE
*****
 27 31 0 0 0
SMALL
GASTEIGER

@<TRIPOS>ATOM
      1 C          66.7881   94.0968   10.9406 C.3     1  UNL1        0.0534
      2 C          65.9479   93.0553   11.6184 C.ar    1  UNL1        0.0730
      3 N          64.6021   92.5745   11.1627 N.ar    1  UNL1       -0.2299
      4 C          64.1286   91.5337   12.1336 C.ar    1  UNL1        0.1604
      5 C          62.8744   90.7129   12.1926 C.ar    1  UNL1        0.0813
      6 C          62.6734   89.7297   13.3074 C.ar    1  UNL1        0.0381
      7 C          63.7265   89.5673   14.3632 C.ar    1  UNL1        0.1034
      8 C          64.9806   90.3880   14.3041 C.ar    1  UNL1        0.1005
      9 N          65.1816   91.3713   13.1893 N.ar    1  UNL1       -0.2905
     10 C          66.3060   92.3116   12.8709 C.ar    1  UNL1        0.0567
     11 C          67.5672   92.4790   13.6656 C.3     1  UNL1        0.0517
     12 N          63.5254   88.5840   15.4781 N.ar    1  UNL1       -0.2064
     13 C          63.0623   88.9088   16.8673 C.ar    1  UNL1        0.2017
     14 N          63.0029   87.6289   17.6472 N.ar    1  UNL1       -0.2004
     15 C          63.4294   86.5130   16.7400 C.ar    1  UNL1        0.2214
     16 N          63.7523   87.1033   15.3994 N.ar    1  UNL1       -0.1408
     17 N          61.8213   90.8753   11.1368 N.pl3   1  UNL1       -0.3282
     18 H          61.4440   91.7654   10.9508 H       1  UNL1        0.1471
     19 C          61.3432   89.6816   10.3645 C.3     1  UNL1        0.0920
     20 C          60.3902   89.7047    9.2064 C.3     1  UNL1        0.0287
     21 C          60.1921   88.2926    8.7409 C.3     1  UNL1        0.0281
     22 C          61.0227   87.3968    9.6113 C.ar    1  UNL1       -0.0245
     23 C          61.2232   85.9103    9.6197 C.ar    1  UNL1       -0.0045
     24 C          62.1351   85.2822   10.6317 C.ar    1  UNL1       -0.0003
     25 C          62.8465   86.1407   11.6351 C.ar    1  UNL1       -0.0003
     26 C          62.6460   87.6272   11.6267 C.ar    1  UNL1       -0.0030
     27 C          61.7341   88.2553   10.6147 C.ar    1  UNL1       -0.0085
@<TRIPOS>BOND
     1     1     2    1
     2     2     3   ar
     3     3     4   ar
     4     4     5   ar
     5     5    17    1
     6    19    17    1
     7    19    20    1
     8    20    21    1
     9    21    22    1
    10    22    23   ar
    11    23    24   ar
    12    24    25   ar
    13    25    26   ar
    14    26    27   ar
    15     5     6   ar
    16     6     7   ar
    17     7    12    1
    18    12    13   ar
    19    13    14   ar
    20    14    15   ar
    21    15    16   ar
    22     7     8   ar
    23     8     9   ar
    24     9    10   ar
    25    10    11    1
    26    10     2   ar
    27     9     4   ar
    28    27    19    1
    29    16    12   ar
    30    27    22   ar
    31    17    18    1
@<TRIPOS>MOLECULE
*****
 27 31 0 0 0
SMALL
GASTEIGER

@<TRIPOS>ATOM
      1 C          62.7980   83.6570   12.5434 C.3     1  UNL1        0.0534
      2 C          63.0655   85.1133   12.7836 C.ar    1  UNL1        0.0730
      3 N          62.8565   86.2228   11.7960 N.ar    1  UNL1       -0.2299
      4 C          63.2509   87.5110   12.4557 C.ar    1  UNL1        0.1604
      5 C          63.2561   88.9288   11.9661 C.ar    1  UNL1        0.0813
      6 C          63.7142   90.0333   12.8717 C.ar    1  UNL1        0.0381
      7 C          64.1670   89.7200   14.2669 C.ar    1  UNL1        0.1034
      8 C          64.1617   88.3021   14.7565 C.ar    1  UNL1        0.1005
      9 N          63.7036   87.1976   13.8509 N.ar    1  UNL1       -0.2905
     10 C          63.5891   85.7158   14.0536 C.ar    1  UNL1        0.0567
     11 C          63.9371   84.9678   15.3064 C.3     1  UNL1        0.0517
     12 N          64.6251   90.8245   15.1726 N.ar    1  UNL1       -0.2064
     13 C          63.8912   91.3407   16.3747 C.ar    1  UNL1        0.2017
     14 N          64.7100   92.4419   16.9802 N.ar    1  UNL1       -0.2004
     15 C          65.9501   92.6063   16.1524 C.ar    1  UNL1        0.2214
     16 N          65.8976   91.6067   15.0353 N.ar    1  UNL1       -0.1408
     17 N          62.8033   89.2421   10.5707 N.pl3   1  UNL1       -0.3282
     18 H          63.2632   89.9387   10.0487 H       1  UNL1        0.1471
     19 C          61.6499   88.4940    9.9708 C.3     1  UNL1        0.0920
     20 C          60.1983   88.8376   10.1286 C.3     1  UNL1        0.0287
     21 C          59.3968   87.8269    9.3631 C.3     1  UNL1        0.0281
     22 C          60.3530   86.8586    8.7321 C.ar    1  UNL1       -0.0245
     23 C          60.1357   85.6547    7.8641 C.ar    1  UNL1       -0.0045
     24 C          61.3108   84.8632    7.3716 C.ar    1  UNL1       -0.0003
     25 C          62.7033   85.2755    7.7472 C.ar    1  UNL1       -0.0003
     26 C          62.9206   86.4794    8.6153 C.ar    1  UNL1       -0.0030
     27 C          61.7455   87.2709    9.1077 C.ar    1  UNL1       -0.0085
@<TRIPOS>BOND
     1     1     2    1
     2     2     3   ar
     3     3     4   ar
     4     4     5   ar
     5     5    17    1
     6    19    17    1
     7    19    20    1
     8    20    21    1
     9    21    22    1
    10    22    23   ar
    11    23    24   ar
    12    24    25   ar
    13    25    26   ar
    14    26    27   ar
    15     5     6   ar
    16     6     7   ar
    17     7    12    1
    18    12    13   ar
    19    13    14   ar
    20    14    15   ar
    21    15    16   ar
    22     7     8   ar
    23     8     9   ar
    24     9    10   ar
    25    10    11    1
    26    10     2   ar
    27     9     4   ar
    28    27    19    1
    29    16    12   ar
    30    27    22   ar
    31    17    18    1
