@<TRIPOS>MOLECULE
*****
 29 31 0 0 0
SMALL
GASTEIGER

@<TRIPOS>ATOM
      1 C          65.3084   91.9433   12.4131 C.ar    1  UNL1       -0.0004
      2 C          65.0466   91.0049   13.5536 C.ar    1  UNL1       -0.0024
      3 C          63.9449   89.9920   13.4535 C.ar    1  UNL1       -0.0002
      4 C          63.1049   89.9175   12.2130 C.ar    1  UNL1        0.0030
      5 C          62.0031   88.9044   12.1130 C.ar    1  UNL1        0.0369
      6 C          61.1632   88.8299   10.8724 C.ar    1  UNL1        0.1386
      7 C          61.4251   89.7684    9.7319 C.ar    1  UNL1        0.0369
      8 C          62.5268   90.7814    9.8319 C.ar    1  UNL1        0.0031
      9 C          63.3668   90.8559   11.0725 C.ar    1  UNL1       -0.0001
     10 C          64.4685   91.8688   11.1726 C.ar    1  UNL1       -0.0024
     11 C          66.4102   92.9563   12.5132 C.3     1  UNL1        0.1240
     12 N          67.2939   92.9861   13.7249 N.ar    1  UNL1       -0.3045
     13 C          67.1256   93.8805   14.9172 C.ar    1  UNL1        0.0983
     14 C          68.2288   93.5738   15.8862 C.ar    1  UNL1        0.1193
     15 N          69.0790   92.4898   15.2927 N.ar    1  UNL1       -0.2223
     16 C          68.5012   92.1266   13.9570 C.ar    1  UNL1        0.1788
     17 C          66.0058   95.3025   11.4729 C.3     1  UNL1        0.0197
     18 C          66.6283   93.9395   11.4016 C.3     1  UNL1        0.0827
     19 N          67.4687   93.5599   10.2186 N.3     1  UNL1       -0.2696
     20 C          68.1017   92.2015   10.1532 C.3     1  UNL1        0.0897
     21 C          67.6763   94.5385    9.1009 C.3     1  UNL1        0.0897
     22 O          60.0615   87.8170   10.7723 O.3     1  UNL1       -0.4751
     23 C          59.5391   87.4074    9.4271 C.3     1  UNL1        0.2103
     24 C          60.3445   86.4875    8.5582 C.3     1  UNL1        0.0724
     25 C          59.5768   86.9511    7.3559 C.3     1  UNL1        0.0093
     26 C          61.1122   86.0239    9.7605 C.3     1  UNL1        0.0093
     27 C          61.1499   85.5676    7.6892 C.2     1  UNL1        0.0532
     28 O          62.6146   85.3787    7.9520 O.co2   1  UNL1       -0.5491
     29 O          60.4906   84.8366    6.5574 O.co2   1  UNL1       -0.5491
@<TRIPOS>UNITY_ATOM_ATTR
28 1
charge -1
@<TRIPOS>BOND
     1    17    18    1
     2    18    11    1
     3    11     1    1
     4     1     2   ar
     5     2     3   ar
     6     3     4   ar
     7     4     5   ar
     8     5     6   ar
     9     6    22    1
    10    22    23    1
    11    23    24    1
    12    24    25    1
    13    24    26    1
    14    24    27    1
    15    27    28   ar
    16    27    29   ar
    17     6     7   ar
    18     7     8   ar
    19     8     9   ar
    20     9    10   ar
    21    11    12    1
    22    12    13   ar
    23    13    14   ar
    24    14    15   ar
    25    15    16   ar
    26    18    19    1
    27    19    20    1
    28    19    21    1
    29    10     1   ar
    30    16    12   ar
    31     9     4   ar
@<TRIPOS>MOLECULE
*****
 29 31 0 0 0
SMALL
GASTEIGER

@<TRIPOS>ATOM
      1 C          63.5200   85.6405   12.8924 C.ar    1  UNL1       -0.0004
      2 C          64.2100   85.5780   14.2227 C.ar    1  UNL1       -0.0024
      3 C          64.5679   86.8445   14.9422 C.ar    1  UNL1       -0.0002
      4 C          64.2358   88.1736   14.3314 C.ar    1  UNL1        0.0030
      5 C          64.5937   89.4402   15.0509 C.ar    1  UNL1        0.0369
      6 C          64.2616   90.7693   14.4400 C.ar    1  UNL1        0.1386
      7 C          63.5715   90.8318   13.1096 C.ar    1  UNL1        0.0369
      8 C          63.2136   89.5653   12.3901 C.ar    1  UNL1        0.0031
      9 C          63.5457   88.2362   13.0010 C.ar    1  UNL1       -0.0001
     10 C          63.1878   86.9696   12.2815 C.ar    1  UNL1       -0.0024
     11 C          63.1620   84.3739   12.1728 C.3     1  UNL1        0.1240
     12 N          62.6533   83.1918   12.9433 N.ar    1  UNL1       -0.3045
     13 C          62.3826   81.8259   12.3855 C.ar    1  UNL1        0.0983
     14 C          61.8879   80.9579   13.5043 C.ar    1  UNL1        0.1193
     15 N          61.8528   81.7873   14.7537 N.ar    1  UNL1       -0.2223
     16 C          62.3258   83.1679   14.4069 C.ar    1  UNL1        0.1788
     17 C          64.2902   83.3234   10.0814 C.3     1  UNL1        0.0197
     18 C          63.3128   84.2895   10.6828 C.3     1  UNL1        0.0827
     19 N          62.4864   85.1712    9.7942 N.3     1  UNL1       -0.2696
     20 C          62.9372   85.4567    8.3923 C.3     1  UNL1        0.0897
     21 C          61.2092   85.7673   10.3074 C.3     1  UNL1        0.0897
     22 O          64.6195   92.0359   15.1595 O.3     1  UNL1       -0.4751
     23 C          66.0458   92.4986   15.1991 C.3     1  UNL1        0.2103
     24 C          66.9083   92.3758   13.9781 C.3     1  UNL1        0.0724
     25 C          66.1069   93.4496   13.3039 C.3     1  UNL1        0.0093
     26 C          67.7098   91.3019   14.6522 C.3     1  UNL1        0.0093
     27 C          67.7708   92.2529   12.7570 C.2     1  UNL1        0.0532
     28 O          67.2645   92.7343   11.4296 O.co2   1  UNL1       -0.5491
     29 O          69.1396   91.6488   12.8633 O.co2   1  UNL1       -0.5491
@<TRIPOS>UNITY_ATOM_ATTR
28 1
charge -1
@<TRIPOS>BOND
     1    17    18    1
     2    18    11    1
     3    11     1    1
     4     1     2   ar
     5     2     3   ar
     6     3     4   ar
     7     4     5   ar
     8     5     6   ar
     9     6    22    1
    10    22    23    1
    11    23    24    1
    12    24    25    1
    13    24    26    1
    14    24    27    1
    15    27    28   ar
    16    27    29   ar
    17     6     7   ar
    18     7     8   ar
    19     8     9   ar
    20     9    10   ar
    21    11    12    1
    22    12    13   ar
    23    13    14   ar
    24    14    15   ar
    25    15    16   ar
    26    18    19    1
    27    19    20    1
    28    19    21    1
    29    10     1   ar
    30    16    12   ar
    31     9     4   ar
@<TRIPOS>MOLECULE
*****
 29 31 0 0 0
SMALL
GASTEIGER

@<TRIPOS>ATOM
      1 C          63.5495   85.3144   13.6037 C.ar    1  UNL1       -0.0004
      2 C          64.3646   85.7321   14.7916 C.ar    1  UNL1       -0.0024
      3 C          64.7003   87.1792   14.9993 C.ar    1  UNL1       -0.0002
      4 C          64.2209   88.2086   14.0192 C.ar    1  UNL1        0.0030
      5 C          64.5567   89.6557   14.2270 C.ar    1  UNL1        0.0369
      6 C          64.0773   90.6851   13.2469 C.ar    1  UNL1        0.1386
      7 C          63.2622   90.2673   12.0589 C.ar    1  UNL1        0.0369
      8 C          62.9266   88.8202   11.8512 C.ar    1  UNL1        0.0031
      9 C          63.4059   87.7908   12.8313 C.ar    1  UNL1       -0.0001
     10 C          63.0702   86.3437   12.6235 C.ar    1  UNL1       -0.0024
     11 C          63.2138   83.8672   13.3959 C.3     1  UNL1        0.1240
     12 N          63.5635   83.1946   12.1015 N.ar    1  UNL1       -0.3045
     13 C          62.6900   82.2439   11.3379 C.ar    1  UNL1        0.0983
     14 C          63.4347   81.8163   10.1080 C.ar    1  UNL1        0.1193
     15 N          64.7684   82.5027   10.1115 N.ar    1  UNL1       -0.2223
     16 C          64.8479   83.3546   11.3436 C.ar    1  UNL1        0.1788
     17 C          62.0147   83.8028   15.6998 C.3     1  UNL1        0.0197
     18 C          62.5285   83.0928   14.4824 C.3     1  UNL1        0.0827
     19 N          62.3568   81.6084   14.3515 N.3     1  UNL1       -0.2696
     20 C          63.5589   80.7111   14.3558 C.3     1  UNL1        0.0897
     21 C          60.9831   81.0213   14.2163 C.3     1  UNL1        0.0897
     22 O          64.4130   92.1321   13.4546 O.3     1  UNL1       -0.4751
     23 C          65.7266   92.6739   12.9737 C.3     1  UNL1        0.2103
     24 C          66.9583   92.5097   13.8138 C.3     1  UNL1        0.0724
     25 C          66.2095   93.0163   15.0107 C.3     1  UNL1        0.0093
     26 C          67.7071   92.0032   12.6169 C.3     1  UNL1        0.0093
     27 C          68.1901   92.3455   14.6539 C.2     1  UNL1        0.0532
     28 O          68.0665   92.1489   16.1358 O.co2   1  UNL1       -0.5491
     29 O          69.5454   92.3780   14.0121 O.co2   1  UNL1       -0.5491
@<TRIPOS>UNITY_ATOM_ATTR
28 1
charge -1
@<TRIPOS>BOND
     1    17    18    1
     2    18    11    1
     3    11     1    1
     4     1     2   ar
     5     2     3   ar
     6     3     4   ar
     7     4     5   ar
     8     5     6   ar
     9     6    22    1
    10    22    23    1
    11    23    24    1
    12    24    25    1
    13    24    26    1
    14    24    27    1
    15    27    28   ar
    16    27    29   ar
    17     6     7   ar
    18     7     8   ar
    19     8     9   ar
    20     9    10   ar
    21    11    12    1
    22    12    13   ar
    23    13    14   ar
    24    14    15   ar
    25    15    16   ar
    26    18    19    1
    27    19    20    1
    28    19    21    1
    29    10     1   ar
    30    16    12   ar
    31     9     4   ar
@<TRIPOS>MOLECULE
*****
 29 31 0 0 0
SMALL
GASTEIGER

@<TRIPOS>ATOM
      1 C          62.3982   87.9245   10.8809 C.ar    1  UNL1       -0.0004
      2 C          62.3583   89.2314   10.1458 C.ar    1  UNL1       -0.0024
      3 C          62.9497   90.4608   10.7691 C.ar    1  UNL1       -0.0002
      4 C          63.5810   90.3834   12.1276 C.ar    1  UNL1        0.0030
      5 C          64.1725   91.6130   12.7509 C.ar    1  UNL1        0.0369
      6 C          64.8038   91.5356   14.1094 C.ar    1  UNL1        0.1386
      7 C          64.8437   90.2287   14.8446 C.ar    1  UNL1        0.0369
      8 C          64.2523   88.9992   14.2212 C.ar    1  UNL1        0.0031
      9 C          63.6210   89.0766   12.8627 C.ar    1  UNL1       -0.0001
     10 C          63.0296   87.8471   12.2394 C.ar    1  UNL1       -0.0024
     11 C          61.8068   86.6949   10.2576 C.3     1  UNL1        0.1240
     12 N          60.6468   86.8161    9.3144 N.ar    1  UNL1       -0.3045
     13 C          60.4175   85.9843    8.0874 C.ar    1  UNL1        0.0983
     14 C          59.1414   86.4444    7.4472 C.ar    1  UNL1        0.1193
     15 N          58.5820   87.5607    8.2786 N.ar    1  UNL1       -0.2223
     16 C          59.5124   87.7904    9.4325 C.ar    1  UNL1        0.1788
     17 C          62.0972   84.7092   11.9077 C.3     1  UNL1        0.0197
     18 C          62.3754   85.3443   10.5775 C.3     1  UNL1        0.0827
     19 N          63.2223   84.6286    9.5672 N.3     1  UNL1       -0.2696
     20 C          63.3322   85.1605    8.1690 C.3     1  UNL1        0.0897
     21 C          63.9593   83.3811    9.9552 C.3     1  UNL1        0.0897
     22 O          65.3952   92.7651   14.7328 O.3     1  UNL1       -0.4751
     23 C          66.5625   93.4478   14.0835 C.3     1  UNL1        0.2103
     24 C          66.9664   93.0774   12.6873 C.3     1  UNL1        0.0724
     25 C          66.1673   94.2279   12.1509 C.3     1  UNL1        0.0093
     26 C          67.7654   91.9268   13.2237 C.3     1  UNL1        0.0093
     27 C          67.3703   92.7069   11.2910 C.2     1  UNL1        0.0532
     28 O          66.4690   93.0346   10.1376 O.co2   1  UNL1       -0.5491
     29 O          68.6755   92.0087   11.0481 O.co2   1  UNL1       -0.5491
@<TRIPOS>UNITY_ATOM_ATTR
28 1
charge -1
@<TRIPOS>BOND
     1    17    18    1
     2    18    11    1
     3    11     1    1
     4     1     2   ar
     5     2     3   ar
     6     3     4   ar
     7     4     5   ar
     8     5     6   ar
     9     6    22    1
    10    22    23    1
    11    23    24    1
    12    24    25    1
    13    24    26    1
    14    24    27    1
    15    27    28   ar
    16    27    29   ar
    17     6     7   ar
    18     7     8   ar
    19     8     9   ar
    20     9    10   ar
    21    11    12    1
    22    12    13   ar
    23    13    14   ar
    24    14    15   ar
    25    15    16   ar
    26    18    19    1
    27    19    20    1
    28    19    21    1
    29    10     1   ar
    30    16    12   ar
    31     9     4   ar
@<TRIPOS>MOLECULE
*****
 29 31 0 0 0
SMALL
GASTEIGER

@<TRIPOS>ATOM
      1 C          63.4612   85.2976   13.4656 C.ar    1  UNL1       -0.0004
      2 C          64.2725   85.7906   14.6269 C.ar    1  UNL1       -0.0024
      3 C          64.5755   87.2533   14.7630 C.ar    1  UNL1       -0.0002
      4 C          64.0672   88.2231   13.7377 C.ar    1  UNL1        0.0030
      5 C          64.3702   89.6859   13.8737 C.ar    1  UNL1        0.0369
      6 C          63.8619   90.6556   12.8484 C.ar    1  UNL1        0.1386
      7 C          63.0506   90.1625   11.6871 C.ar    1  UNL1        0.0369
      8 C          62.7476   88.6998   11.5511 C.ar    1  UNL1        0.0031
      9 C          63.2559   87.7301   12.5763 C.ar    1  UNL1       -0.0001
     10 C          62.9529   86.2673   12.4403 C.ar    1  UNL1       -0.0024
     11 C          63.1581   83.8348   13.3295 C.3     1  UNL1        0.1240
     12 N          63.5144   83.1095   12.0658 N.ar    1  UNL1       -0.3045
     13 C          62.6497   82.1187   11.3442 C.ar    1  UNL1        0.0983
     14 C          63.3987   81.6445   10.1342 C.ar    1  UNL1        0.1193
     15 N          64.7263   82.3422   10.1080 N.ar    1  UNL1       -0.2223
     16 C          64.7978   83.2476   11.3018 C.ar    1  UNL1        0.1788
     17 C          62.0224   83.8465   15.6662 C.3     1  UNL1        0.0197
     18 C          62.4989   83.0973   14.4572 C.3     1  UNL1        0.0827
     19 N          62.3163   81.6107   14.3759 N.3     1  UNL1       -0.2696
     20 C          60.9433   81.0323   14.2010 C.3     1  UNL1        0.0897
     21 C          63.5064   80.7026   14.4694 C.3     1  UNL1        0.0897
     22 O          64.1649   92.1183   12.9845 O.3     1  UNL1       -0.4751
     23 C          65.5778   92.6064   12.8595 C.3     1  UNL1        0.2103
     24 C          65.9314   93.6195   11.8114 C.3     1  UNL1        0.0724
     25 C          65.4649   92.6764   10.7424 C.3     1  UNL1        0.0093
     26 C          66.3979   94.5626   12.8805 C.3     1  UNL1        0.0093
     27 C          66.2850   94.6326   10.7634 C.2     1  UNL1        0.0532
     28 O          65.3055   95.7091   10.4000 O.co2   1  UNL1       -0.5491
     29 O          67.6181   94.5693   10.0786 O.co2   1  UNL1       -0.5491
@<TRIPOS>UNITY_ATOM_ATTR
28 1
charge -1
@<TRIPOS>BOND
     1    17    18    1
     2    18    11    1
     3    11     1    1
     4     1     2   ar
     5     2     3   ar
     6     3     4   ar
     7     4     5   ar
     8     5     6   ar
     9     6    22    1
    10    22    23    1
    11    23    24    1
    12    24    25    1
    13    24    26    1
    14    24    27    1
    15    27    28   ar
    16    27    29   ar
    17     6     7   ar
    18     7     8   ar
    19     8     9   ar
    20     9    10   ar
    21    11    12    1
    22    12    13   ar
    23    13    14   ar
    24    14    15   ar
    25    15    16   ar
    26    18    19    1
    27    19    20    1
    28    19    21    1
    29    10     1   ar
    30    16    12   ar
    31     9     4   ar
@<TRIPOS>MOLECULE
*****
 29 31 0 0 0
SMALL
GASTEIGER

@<TRIPOS>ATOM
      1 C          63.2664   86.3156   12.6041 C.ar    1  UNL1       -0.0004
      2 C          63.9502   86.0737   13.9170 C.ar    1  UNL1       -0.0024
      3 C          64.4309   87.2339   14.7372 C.ar    1  UNL1       -0.0002
      4 C          64.2277   88.6360   14.2446 C.ar    1  UNL1        0.0030
      5 C          64.7084   89.7963   15.0649 C.ar    1  UNL1        0.0369
      6 C          64.5052   91.1984   14.5723 C.ar    1  UNL1        0.1386
      7 C          63.8213   91.4403   13.2593 C.ar    1  UNL1        0.0369
      8 C          63.3406   90.2801   12.4390 C.ar    1  UNL1        0.0031
      9 C          63.5438   88.8780   12.9317 C.ar    1  UNL1       -0.0001
     10 C          63.0632   87.7178   12.1114 C.ar    1  UNL1       -0.0024
     11 C          62.7857   85.1554   11.7837 C.3     1  UNL1        0.1240
     12 N          62.2868   85.3800   10.3871 N.ar    1  UNL1       -0.3045
     13 C          63.0242   85.0491    9.1235 C.ar    1  UNL1        0.0983
     14 C          62.1560   85.4395    7.9643 C.ar    1  UNL1        0.1193
     15 N          60.8819   86.0117    8.5114 N.ar    1  UNL1       -0.2223
     16 C          60.9628   85.9749   10.0088 C.ar    1  UNL1        0.1788
     17 C          62.1710   83.5050   13.6938 C.3     1  UNL1        0.0197
     18 C          62.8040   83.7707   12.3600 C.3     1  UNL1        0.0827
     19 N          63.4552   82.6516   11.6027 N.3     1  UNL1       -0.2696
     20 C          64.7525   82.8858   10.8868 C.3     1  UNL1        0.0897
     21 C          62.8093   81.2985   11.5612 C.3     1  UNL1        0.0897
     22 O          64.9858   92.3586   15.3926 O.3     1  UNL1       -0.4751
     23 C          66.3548   92.9258   15.1597 C.3     1  UNL1        0.2103
     24 C          67.0693   92.6549   13.8689 C.3     1  UNL1        0.0724
     25 C          66.3420   93.7987   13.2264 C.3     1  UNL1        0.0093
     26 C          67.7965   91.5111   14.5114 C.3     1  UNL1        0.0093
     27 C          67.7837   92.3841   12.5781 C.2     1  UNL1        0.0532
     28 O          67.2443   92.9367   11.2921 O.co2   1  UNL1       -0.5491
     29 O          69.0375   91.5607   12.5733 O.co2   1  UNL1       -0.5491
@<TRIPOS>UNITY_ATOM_ATTR
28 1
charge -1
@<TRIPOS>BOND
     1    17    18    1
     2    18    11    1
     3    11     1    1
     4     1     2   ar
     5     2     3   ar
     6     3     4   ar
     7     4     5   ar
     8     5     6   ar
     9     6    22    1
    10    22    23    1
    11    23    24    1
    12    24    25    1
    13    24    26    1
    14    24    27    1
    15    27    28   ar
    16    27    29   ar
    17     6     7   ar
    18     7     8   ar
    19     8     9   ar
    20     9    10   ar
    21    11    12    1
    22    12    13   ar
    23    13    14   ar
    24    14    15   ar
    25    15    16   ar
    26    18    19    1
    27    19    20    1
    28    19    21    1
    29    10     1   ar
    30    16    12   ar
    31     9     4   ar
@<TRIPOS>MOLECULE
*****
 29 31 0 0 0
SMALL
GASTEIGER

@<TRIPOS>ATOM
      1 C          62.8455   84.8382   11.8780 C.ar    1  UNL1       -0.0004
      2 C          63.2666   84.3625   10.5192 C.ar    1  UNL1       -0.0024
      3 C          62.6751   84.9859    9.2898 C.ar    1  UNL1       -0.0002
      4 C          61.6625   86.0850    9.4193 C.ar    1  UNL1        0.0030
      5 C          61.0710   86.7084    8.1898 C.ar    1  UNL1        0.0369
      6 C          60.0584   87.8075    8.3192 C.ar    1  UNL1        0.1386
      7 C          59.6373   88.2831    9.6781 C.ar    1  UNL1        0.0369
      8 C          60.2289   87.6597   10.9075 C.ar    1  UNL1        0.0031
      9 C          61.2414   86.5606   10.7781 C.ar    1  UNL1       -0.0001
     10 C          61.8329   85.9372   12.0075 C.ar    1  UNL1       -0.0024
     11 C          63.4370   84.2147   13.1075 C.3     1  UNL1        0.1240
     12 N          63.0889   82.8025   13.4739 N.ar    1  UNL1       -0.3045
     13 C          63.7171   81.5640   12.9069 C.ar    1  UNL1        0.0983
     14 C          63.0678   80.3768   13.5542 C.ar    1  UNL1        0.1193
     15 N          62.0384   80.8815   14.5214 N.ar    1  UNL1       -0.2223
     16 C          62.0514   82.3807   14.4718 C.ar    1  UNL1        0.1788
     17 C          65.8446   84.6949   13.9581 C.3     1  UNL1        0.0197
     18 C          64.3767   85.0036   13.9705 C.3     1  UNL1        0.0827
     19 N          63.8485   86.1012   14.8459 N.3     1  UNL1       -0.2696
     20 C          63.0016   85.7677   16.0382 C.3     1  UNL1        0.0897
     21 C          64.1672   87.5323   14.5290 C.3     1  UNL1        0.0897
     22 O          59.4669   88.4309    7.0898 O.3     1  UNL1       -0.4751
     23 C          60.0270   89.7165    6.5572 C.3     1  UNL1        0.2103
     24 C          59.1783   90.6048    5.6967 C.3     1  UNL1        0.0724
     25 C          60.4137   91.1658    5.0572 C.3     1  UNL1        0.0093
     26 C          57.9428   90.0439    6.3362 C.3     1  UNL1        0.0093
     27 C          58.3295   91.4932    4.8363 C.2     1  UNL1        0.0532
     28 O          56.8449   91.5434    5.0451 O.co2   1  UNL1       -0.5491
     29 O          58.9653   92.3314    3.7671 O.co2   1  UNL1       -0.5491
@<TRIPOS>UNITY_ATOM_ATTR
28 1
charge -1
@<TRIPOS>BOND
     1    17    18    1
     2    18    11    1
     3    11     1    1
     4     1     2   ar
     5     2     3   ar
     6     3     4   ar
     7     4     5   ar
     8     5     6   ar
     9     6    22    1
    10    22    23    1
    11    23    24    1
    12    24    25    1
    13    24    26    1
    14    24    27    1
    15    27    28   ar
    16    27    29   ar
    17     6     7   ar
    18     7     8   ar
    19     8     9   ar
    20     9    10   ar
    21    11    12    1
    22    12    13   ar
    23    13    14   ar
    24    14    15   ar
    25    15    16   ar
    26    18    19    1
    27    19    20    1
    28    19    21    1
    29    10     1   ar
    30    16    12   ar
    31     9     4   ar
@<TRIPOS>MOLECULE
*****
 29 31 0 0 0
SMALL
GASTEIGER

@<TRIPOS>ATOM
      1 C          62.6070   84.8878   11.4425 C.ar    1  UNL1       -0.0004
      2 C          62.9288   84.4436   10.0464 C.ar    1  UNL1       -0.0024
      3 C          62.2925   85.1313    8.8751 C.ar    1  UNL1       -0.0002
      4 C          61.3343   86.2633    9.0998 C.ar    1  UNL1        0.0030
      5 C          60.6980   86.9511    7.9284 C.ar    1  UNL1        0.0369
      6 C          59.7398   88.0831    8.1532 C.ar    1  UNL1        0.1386
      7 C          59.4180   88.5273    9.5493 C.ar    1  UNL1        0.0369
      8 C          60.0543   87.8396   10.7206 C.ar    1  UNL1        0.0031
      9 C          61.0125   86.7076   10.4959 C.ar    1  UNL1       -0.0001
     10 C          61.6488   86.0198   11.6672 C.ar    1  UNL1       -0.0024
     11 C          63.2433   84.2001   12.6139 C.3     1  UNL1        0.1240
     12 N          63.3721   84.9169   13.9252 N.ar    1  UNL1       -0.3045
     13 C          62.7702   84.4846   15.2293 C.ar    1  UNL1        0.0983
     14 C          63.1515   85.4925   16.2727 C.ar    1  UNL1        0.1193
     15 N          63.9892   86.5478   15.6135 N.ar    1  UNL1       -0.2223
     16 C          64.1255   86.1921   14.1626 C.ar    1  UNL1        0.1788
     17 C          65.2251   82.5369   12.3763 C.3     1  UNL1        0.0197
     18 C          63.7508   82.7955   12.4740 C.3     1  UNL1        0.0827
     19 N          62.7839   81.6494   12.4318 N.3     1  UNL1       -0.2696
     20 C          62.8012   80.6959   11.2739 C.3     1  UNL1        0.0897
     21 C          61.7999   81.4569   13.5474 C.3     1  UNL1        0.0897
     22 O          59.1035   88.7708    6.9818 O.3     1  UNL1       -0.4751
     23 C          59.9038   89.7272    6.1481 C.3     1  UNL1        0.2103
     24 C          59.2131   90.8256    5.3956 C.3     1  UNL1        0.0724
     25 C          57.8920   90.3660    5.9374 C.3     1  UNL1        0.0093
     26 C          60.5341   91.2851    4.8537 C.3     1  UNL1        0.0093
     27 C          58.5223   91.9239    4.6430 C.2     1  UNL1        0.0532
     28 O          57.0658   92.1939    4.8790 O.co2   1  UNL1       -0.5491
     29 O          59.2880   92.7524    3.6544 O.co2   1  UNL1       -0.5491
@<TRIPOS>UNITY_ATOM_ATTR
28 1
charge -1
@<TRIPOS>BOND
     1    17    18    1
     2    18    11    1
     3    11     1    1
     4     1     2   ar
     5     2     3   ar
     6     3     4   ar
     7     4     5   ar
     8     5     6   ar
     9     6    22    1
    10    22    23    1
    11    23    24    1
    12    24    25    1
    13    24    26    1
    14    24    27    1
    15    27    28   ar
    16    27    29   ar
    17     6     7   ar
    18     7     8   ar
    19     8     9   ar
    20     9    10   ar
    21    11    12    1
    22    12    13   ar
    23    13    14   ar
    24    14    15   ar
    25    15    16   ar
    26    18    19    1
    27    19    20    1
    28    19    21    1
    29    10     1   ar
    30    16    12   ar
    31     9     4   ar
@<TRIPOS>MOLECULE
*****
 29 31 0 0 0
SMALL
GASTEIGER

@<TRIPOS>ATOM
      1 C          62.5854   87.4624   10.8067 C.ar    1  UNL1       -0.0004
      2 C          62.4521   88.8061   10.1535 C.ar    1  UNL1       -0.0024
      3 C          62.8672   90.0437   10.8924 C.ar    1  UNL1       -0.0002
      4 C          63.4155   89.9376   12.2846 C.ar    1  UNL1        0.0030
      5 C          63.8306   91.1753   13.0235 C.ar    1  UNL1        0.0369
      6 C          64.3790   91.0692   14.4156 C.ar    1  UNL1        0.1386
      7 C          64.5123   89.7254   15.0688 C.ar    1  UNL1        0.0369
      8 C          64.0972   88.4878   14.3299 C.ar    1  UNL1        0.0031
      9 C          63.5489   88.5939   12.9378 C.ar    1  UNL1       -0.0001
     10 C          63.1338   87.3563   12.1989 C.ar    1  UNL1       -0.0024
     11 C          62.1703   86.2247   10.0678 C.3     1  UNL1        0.1240
     12 N          62.7099   84.8877   10.4817 N.ar    1  UNL1       -0.3045
     13 C          63.6775   84.0476    9.7019 C.ar    1  UNL1        0.0983
     14 C          63.9423   82.7968   10.4862 C.ar    1  UNL1        0.1193
     15 N          63.1384   82.8638   11.7508 N.ar    1  UNL1       -0.2223
     16 C          62.3768   84.1560   11.7480 C.ar    1  UNL1        0.1788
     17 C          61.5694   85.7095    7.5932 C.3     1  UNL1        0.0197
     18 C          61.2157   86.3241    8.9151 C.3     1  UNL1        0.0827
     19 N          59.9073   87.0379    9.0842 N.3     1  UNL1       -0.2696
     20 C          58.8974   87.0256    7.9751 C.3     1  UNL1        0.0897
     21 C          59.6088   87.7640   10.3624 C.3     1  UNL1        0.0897
     22 O          64.7941   92.3068   15.1545 O.3     1  UNL1       -0.4751
     23 C          66.2069   92.8011   15.0555 C.3     1  UNL1        0.2103
     24 C          66.9976   92.5660   13.8028 C.3     1  UNL1        0.0724
     25 C          66.3107   93.7293   13.1509 C.3     1  UNL1        0.0093
     26 C          67.6845   91.4028   14.4547 C.3     1  UNL1        0.0093
     27 C          67.7884   92.3309   12.5501 C.2     1  UNL1        0.0532
     28 O          69.1002   91.6065   12.6161 O.co2   1  UNL1       -0.5491
     29 O          67.2674   92.8203   11.2313 O.co2   1  UNL1       -0.5491
@<TRIPOS>UNITY_ATOM_ATTR
28 1
charge -1
@<TRIPOS>BOND
     1    17    18    1
     2    18    11    1
     3    11     1    1
     4     1     2   ar
     5     2     3   ar
     6     3     4   ar
     7     4     5   ar
     8     5     6   ar
     9     6    22    1
    10    22    23    1
    11    23    24    1
    12    24    25    1
    13    24    26    1
    14    24    27    1
    15    27    28   ar
    16    27    29   ar
    17     6     7   ar
    18     7     8   ar
    19     8     9   ar
    20     9    10   ar
    21    11    12    1
    22    12    13   ar
    23    13    14   ar
    24    14    15   ar
    25    15    16   ar
    26    18    19    1
    27    19    20    1
    28    19    21    1
    29    10     1   ar
    30    16    12   ar
    31     9     4   ar
