@<TRIPOS>MOLECULE
*****
 38 41 0 0 0
SMALL
GASTEIGER

@<TRIPOS>ATOM
      1 N          64.1067   90.8391   12.5566 N.ar    1  UNL1       -0.2399
      2 C          64.3683   89.6375   13.4155 C.ar    1  UNL1        0.2819
      3 O          65.1953   89.7707   14.6598 O.2     1  UNL1       -0.2652
      4 C          63.8030   88.3026   13.0300 C.ar    1  UNL1        0.1349
      5 C          62.9760   88.1694   11.7857 C.ar    1  UNL1        0.0966
      6 C          62.5537   86.7355   11.6610 C.ar    1  UNL1        0.1156
      7 C          63.1196   85.9825   12.8284 C.ar    1  UNL1        0.1240
      8 N          63.8918   86.9511   13.6745 N.ar    1  UNL1       -0.3063
      9 N          62.7144   89.3710   10.9268 N.ar    1  UNL1       -0.2770
     10 C          61.8875   89.2378    9.6824 C.3     1  UNL1        0.1351
     11 C          63.2798   90.7059   11.3123 C.ar    1  UNL1        0.3343
     12 O          63.0182   91.9076   10.4534 O.2     1  UNL1       -0.2462
     13 N          62.9443   84.5181   13.1017 N.pl3   1  UNL1       -0.2925
     14 C          63.4439   83.5921   12.0327 C.3     1  UNL1        0.0936
     15 C          63.4152   82.0926   12.0058 C.3     1  UNL1        0.0385
     16 C          62.8797   81.1488   13.0414 C.3     1  UNL1        0.0704
     17 N          62.2407   81.4713   14.3595 N.3     1  UNL1       -0.2960
     18 C          61.9794   82.8173   14.9678 C.3     1  UNL1        0.0903
     19 C          62.2925   84.1733   14.4080 C.3     1  UNL1        0.1092
     20 H          62.8170   80.9873   15.0480 H       1  UNL1        0.1233
     21 C          61.7130   86.1563   10.5621 C.1     1  UNL1        0.1047
     22 N          60.8724   85.5771    9.4631 N.1     1  UNL1       -0.1907
     23 C          64.6721   92.1739   12.9421 C.3     1  UNL1        0.1826
     24 C          66.1270   92.4643   12.7211 C.2     1  UNL1        0.1961
     25 O          67.1291   92.1282   13.7855 O.2     1  UNL1       -0.2893
     26 C          66.5519   95.0869    9.7729 C.ar    1  UNL1        0.1388
     27 C          67.4857   94.3434    8.8646 C.ar    1  UNL1        0.0369
     28 C          67.9667   92.9737    9.2417 C.ar    1  UNL1        0.0032
     29 C          67.5139   92.3472   10.5271 C.ar    1  UNL1        0.0031
     30 C          66.5799   93.0907   11.4356 C.ar    1  UNL1        0.0397
     31 C          66.0990   94.4605   11.0584 C.ar    1  UNL1        0.0398
     32 C          64.6496   96.8532    9.6654 C.3     1  UNL1        0.2525
     33 O          66.0709   96.4567    9.3958 O.3     1  UNL1       -0.4714
     34 C          64.6240   86.6252   14.9424 C.3     1  UNL1        0.1332
     35 C          63.8701   86.1115   16.1330 C.2     1  UNL1       -0.0102
     36 C          63.1519   87.0697   17.0365 C.2     1  UNL1       -0.0460
     37 C          62.3979   86.5559   18.2272 C.3     1  UNL1        0.0261
     38 C          63.1877   88.5414   16.7493 C.3     1  UNL1        0.0261
@<TRIPOS>BOND
     1    32    33    1
     2    33    26    1
     3    26    27   ar
     4    27    28   ar
     5    28    29   ar
     6    29    30   ar
     7    30    24    1
     8    24    25    2
     9    24    23    1
    10    23     1    1
    11     1     2   ar
    12     2     3    2
    13     2     4   ar
    14     4     5   ar
    15     5     6   ar
    16     6    21    1
    17    21    22    3
    18     6     7   ar
    19     7    13    1
    20    13    14    1
    21    14    15    1
    22    15    16    1
    23    16    17    1
    24    17    18    1
    25    18    19    1
    26     7     8   ar
    27     8    34    1
    28    34    35    1
    29    35    36    2
    30    36    37    1
    31    36    38    1
    32     5     9   ar
    33     9    10    1
    34     9    11   ar
    35    11    12    2
    36    30    31   ar
    37    31    26   ar
    38    11     1   ar
    39     8     4   ar
    40    19    13    1
    41    17    20    1
@<TRIPOS>MOLECULE
*****
 38 41 0 0 0
SMALL
GASTEIGER

@<TRIPOS>ATOM
      1 N          61.8048   87.9782   10.9719 N.ar    1  UNL1       -0.2399
      2 C          62.6492   88.0015   12.2114 C.ar    1  UNL1        0.2819
      3 O          62.6266   86.8367   13.1563 O.2     1  UNL1       -0.2652
      4 C          63.5164   89.1895   12.5059 C.ar    1  UNL1        0.1349
      5 C          63.5390   90.3542   11.5610 C.ar    1  UNL1        0.0966
      6 C          64.4858   91.3793   12.1113 C.ar    1  UNL1        0.1156
      7 C          65.0483   90.8480   13.3963 C.ar    1  UNL1        0.1240
      8 N          64.4492   89.4946   13.6402 N.ar    1  UNL1       -0.3063
      9 N          62.6945   90.3310   10.3215 N.ar    1  UNL1       -0.2770
     10 C          62.7171   91.4957    9.3765 C.3     1  UNL1        0.1351
     11 C          61.8274   89.1429   10.0270 C.ar    1  UNL1        0.3343
     12 O          60.9828   89.1196    8.7875 O.2     1  UNL1       -0.2462
     13 N          66.0365   91.5473   14.2820 N.pl3   1  UNL1       -0.2925
     14 C          67.4355   91.6414   13.7491 C.3     1  UNL1        0.0936
     15 C          68.6385   92.2715   14.3859 C.3     1  UNL1        0.0385
     16 C          68.7398   92.9631   15.7132 C.3     1  UNL1        0.0704
     17 N          67.6630   93.1954   16.7312 N.3     1  UNL1       -0.2960
     18 C          66.2190   92.7936   16.6735 C.3     1  UNL1        0.0903
     19 C          65.4951   92.0601   15.5835 C.3     1  UNL1        0.1092
     20 H          67.6418   94.2078   16.8542 H       1  UNL1        0.1233
     21 C          64.8127   92.7031   11.4863 C.1     1  UNL1        0.1047
     22 N          65.1395   94.0269   10.8613 N.1     1  UNL1       -0.1907
     23 C          60.9376   86.7901   10.6774 C.3     1  UNL1        0.1826
     24 C          61.4525   85.6838    9.8051 C.2     1  UNL1        0.1961
     25 O          61.0158   85.5927    8.3730 O.2     1  UNL1       -0.2893
     26 C          63.2443   83.2321   12.3602 C.ar    1  UNL1        0.1388
     27 C          64.3073   82.6377   11.4847 C.ar    1  UNL1        0.0369
     28 C          64.4188   83.0586   10.0494 C.ar    1  UNL1        0.0032
     29 C          63.4672   84.0739    9.4894 C.ar    1  UNL1        0.0031
     30 C          62.4041   84.6684   10.3650 C.ar    1  UNL1        0.0397
     31 C          62.2927   84.2474   11.8004 C.ar    1  UNL1        0.0398
     32 C          62.0775   81.8288   14.2094 C.3     1  UNL1        0.2525
     33 O          63.1329   82.8111   13.7957 O.3     1  UNL1       -0.4714
     34 C          64.7331   88.6030   14.8126 C.3     1  UNL1        0.1332
     35 C          63.7158   88.4534   15.9047 C.2     1  UNL1       -0.0102
     36 C          63.4264   87.0985   16.4797 C.2     1  UNL1       -0.0460
     37 C          62.4090   86.9489   17.5718 C.3     1  UNL1        0.0261
     38 C          64.1544   85.8933   15.9626 C.3     1  UNL1        0.0261
@<TRIPOS>BOND
     1    32    33    1
     2    33    26    1
     3    26    27   ar
     4    27    28   ar
     5    28    29   ar
     6    29    30   ar
     7    30    24    1
     8    24    25    2
     9    24    23    1
    10    23     1    1
    11     1     2   ar
    12     2     3    2
    13     2     4   ar
    14     4     5   ar
    15     5     6   ar
    16     6    21    1
    17    21    22    3
    18     6     7   ar
    19     7    13    1
    20    13    14    1
    21    14    15    1
    22    15    16    1
    23    16    17    1
    24    17    18    1
    25    18    19    1
    26     7     8   ar
    27     8    34    1
    28    34    35    1
    29    35    36    2
    30    36    37    1
    31    36    38    1
    32     5     9   ar
    33     9    10    1
    34     9    11   ar
    35    11    12    2
    36    30    31   ar
    37    31    26   ar
    38    11     1   ar
    39     8     4   ar
    40    19    13    1
    41    17    20    1
@<TRIPOS>MOLECULE
*****
 38 41 0 0 0
SMALL
GASTEIGER

@<TRIPOS>ATOM
      1 N          61.6662   88.1956   10.9926 N.ar    1  UNL1       -0.2399
      2 C          62.5714   88.1972   12.1888 C.ar    1  UNL1        0.2819
      3 O          62.5480   87.0447   13.1486 O.2     1  UNL1       -0.2652
      4 C          63.4999   89.3513   12.4250 C.ar    1  UNL1        0.1349
      5 C          63.5233   90.5038   11.4652 C.ar    1  UNL1        0.0966
      6 C          64.5374   91.4946   11.9550 C.ar    1  UNL1        0.1156
      7 C          65.1408   90.9544   13.2176 C.ar    1  UNL1        0.1240
      8 N          64.4996   89.6298   13.5081 N.ar    1  UNL1       -0.3063
      9 N          62.6182   90.5021   10.2691 N.ar    1  UNL1       -0.2770
     10 C          62.6415   91.6546    9.3091 C.3     1  UNL1        0.1351
     11 C          61.6896   89.3479   10.0328 C.ar    1  UNL1        0.3343
     12 O          60.7844   89.3463    8.8367 O.2     1  UNL1       -0.2462
     13 N          66.1995   91.6217   14.0446 N.pl3   1  UNL1       -0.2925
     14 C          65.7607   92.1090   15.3937 C.3     1  UNL1        0.0936
     15 C          66.5709   92.8084   16.4445 C.3     1  UNL1        0.0385
     16 C          68.0202   93.1932   16.4058 C.3     1  UNL1        0.0704
     17 N          69.0171   92.9737   15.3068 N.3     1  UNL1       -0.2960
     18 C          68.8110   92.3152   13.9750 C.3     1  UNL1        0.0903
     19 C          67.5570   91.7134   13.4132 C.3     1  UNL1        0.1092
     20 H          69.7656   92.4365   15.7444 H       1  UNL1        0.1233
     21 C          64.8868   92.7968   11.2977 C.1     1  UNL1        0.1047
     22 N          65.2362   94.0990   10.6404 N.1     1  UNL1       -0.1907
     23 C          60.7377   87.0414   10.7564 C.3     1  UNL1        0.1826
     24 C          61.1382   85.9349    9.8263 C.2     1  UNL1        0.1961
     25 O          60.4713   85.8005    8.4894 O.2     1  UNL1       -0.2893
     26 C          63.3139   83.4658   12.0444 C.ar    1  UNL1        0.1388
     27 C          64.3405   83.0183   11.0465 C.ar    1  UNL1        0.0369
     28 C          64.2997   83.5430    9.6419 C.ar    1  UNL1        0.0032
     29 C          63.2323   84.5152    9.2350 C.ar    1  UNL1        0.0031
     30 C          62.2056   84.9627   10.2330 C.ar    1  UNL1        0.0397
     31 C          62.2465   84.4380   11.6377 C.ar    1  UNL1        0.0398
     32 C          63.1496   81.4781   13.7094 C.3     1  UNL1        0.2525
     33 O          63.3547   82.9410   13.4490 O.3     1  UNL1       -0.4714
     34 C          64.8045   88.7400   14.6766 C.3     1  UNL1        0.1332
     35 C          63.8280   88.6291   15.8097 C.2     1  UNL1       -0.0102
     36 C          63.5312   87.2894   16.4157 C.2     1  UNL1       -0.0460
     37 C          62.5547   87.1786   17.5489 C.3     1  UNL1        0.0261
     38 C          64.2110   86.0607   15.8885 C.3     1  UNL1        0.0261
@<TRIPOS>BOND
     1    32    33    1
     2    33    26    1
     3    26    27   ar
     4    27    28   ar
     5    28    29   ar
     6    29    30   ar
     7    30    24    1
     8    24    25    2
     9    24    23    1
    10    23     1    1
    11     1     2   ar
    12     2     3    2
    13     2     4   ar
    14     4     5   ar
    15     5     6   ar
    16     6    21    1
    17    21    22    3
    18     6     7   ar
    19     7    13    1
    20    13    14    1
    21    14    15    1
    22    15    16    1
    23    16    17    1
    24    17    18    1
    25    18    19    1
    26     7     8   ar
    27     8    34    1
    28    34    35    1
    29    35    36    2
    30    36    37    1
    31    36    38    1
    32     5     9   ar
    33     9    10    1
    34     9    11   ar
    35    11    12    2
    36    30    31   ar
    37    31    26   ar
    38    11     1   ar
    39     8     4   ar
    40    19    13    1
    41    17    20    1
@<TRIPOS>MOLECULE
*****
 38 41 0 0 0
SMALL
GASTEIGER

@<TRIPOS>ATOM
      1 N          62.9232   89.3823   12.5224 N.ar    1  UNL1       -0.2399
      2 C          62.5974   88.2674   11.5733 C.ar    1  UNL1        0.2819
      3 O          62.0386   88.5770   10.2161 O.2     1  UNL1       -0.2652
      4 C          62.8303   86.8429   11.9815 C.ar    1  UNL1        0.1349
      5 C          63.3891   86.5334   13.3386 C.ar    1  UNL1        0.0966
      6 C          63.5108   85.0433   13.4611 C.ar    1  UNL1        0.1156
      7 C          63.0272   84.4320   12.1795 C.ar    1  UNL1        0.1240
      8 N          62.6067   85.5442   11.2650 N.ar    1  UNL1       -0.3063
      9 N          63.7149   87.6483   14.2877 N.ar    1  UNL1       -0.2770
     10 C          64.2737   87.3388   15.6450 C.3     1  UNL1        0.1351
     11 C          63.4819   89.0728   13.8795 C.ar    1  UNL1        0.3343
     12 O          63.8078   90.1878   14.8287 O.2     1  UNL1       -0.2462
     13 N          62.9736   82.9659   11.8672 N.pl3   1  UNL1       -0.2925
     14 C          63.4912   82.5688   10.5165 C.3     1  UNL1        0.0936
     15 C          63.5725   81.1985    9.9118 C.3     1  UNL1        0.0385
     16 C          63.1563   79.8868   10.5085 C.3     1  UNL1        0.0704
     17 N          62.5559   79.6214   11.8572 N.3     1  UNL1       -0.2960
     18 C          62.2235   80.6021   12.9424 C.3     1  UNL1        0.0903
     19 C          62.4094   82.0906   12.9468 C.3     1  UNL1        0.1092
     20 H          63.1973   78.9614   12.2970 H       1  UNL1        0.1233
     21 C          64.0256   84.2959   14.6553 C.1     1  UNL1        0.1047
     22 N          64.5404   83.5484   15.8496 N.1     1  UNL1       -0.1907
     23 C          62.6902   90.8069   12.1142 C.3     1  UNL1        0.1826
     24 C          63.5970   91.4577   11.1121 C.2     1  UNL1        0.1961
     25 O          63.1537   91.6103    9.6873 O.2     1  UNL1       -0.2893
     26 C          67.2924   92.8926   10.9243 C.ar    1  UNL1        0.1388
     27 C          67.6476   92.9524   12.3804 C.ar    1  UNL1        0.0369
     28 C          66.6527   92.5140   13.4137 C.ar    1  UNL1        0.0032
     29 C          65.3024   92.0158   12.9911 C.ar    1  UNL1        0.0031
     30 C          64.9472   91.9559   11.5349 C.ar    1  UNL1        0.0397
     31 C          65.9422   92.3944   10.5015 C.ar    1  UNL1        0.0398
     32 C          68.7360   92.3729    8.8277 C.3     1  UNL1        0.2525
     33 O          68.2873   93.3311    9.8909 O.3     1  UNL1       -0.4714
     34 C          62.0587   85.3855    9.8778 C.3     1  UNL1        0.1332
     35 C          60.7998   86.0989    9.4825 C.2     1  UNL1       -0.0102
     36 C          60.3395   86.0729    8.0550 C.2     1  UNL1       -0.0460
     37 C          59.0806   86.7863    7.6598 C.3     1  UNL1        0.0261
     38 C          61.1381   85.3334    7.0230 C.3     1  UNL1        0.0261
@<TRIPOS>BOND
     1    32    33    1
     2    33    26    1
     3    26    27   ar
     4    27    28   ar
     5    28    29   ar
     6    29    30   ar
     7    30    24    1
     8    24    25    2
     9    24    23    1
    10    23     1    1
    11     1     2   ar
    12     2     3    2
    13     2     4   ar
    14     4     5   ar
    15     5     6   ar
    16     6    21    1
    17    21    22    3
    18     6     7   ar
    19     7    13    1
    20    13    14    1
    21    14    15    1
    22    15    16    1
    23    16    17    1
    24    17    18    1
    25    18    19    1
    26     7     8   ar
    27     8    34    1
    28    34    35    1
    29    35    36    2
    30    36    37    1
    31    36    38    1
    32     5     9   ar
    33     9    10    1
    34     9    11   ar
    35    11    12    2
    36    30    31   ar
    37    31    26   ar
    38    11     1   ar
    39     8     4   ar
    40    19    13    1
    41    17    20    1
@<TRIPOS>MOLECULE
*****
 38 41 0 0 0
SMALL
GASTEIGER

@<TRIPOS>ATOM
      1 N          60.9317   89.8654   10.6475 N.ar    1  UNL1       -0.2399
      2 C          62.2774   90.5116   10.5012 C.ar    1  UNL1        0.2819
      3 O          62.7727   90.9138    9.1436 O.2     1  UNL1       -0.2652
      4 C          63.1279   90.7555   11.7124 C.ar    1  UNL1        0.1349
      5 C          62.6326   90.3533   13.0700 C.ar    1  UNL1        0.0966
      6 C          63.6854   90.7178   14.0743 C.ar    1  UNL1        0.1156
      7 C          64.8314   91.3452   13.3374 C.ar    1  UNL1        0.1240
      8 N          64.4869   91.3686   11.8777 N.ar    1  UNL1       -0.3063
      9 N          61.2868   89.7072   13.2163 N.ar    1  UNL1       -0.2770
     10 C          60.7915   89.3049   14.5738 C.3     1  UNL1        0.1351
     11 C          60.4364   89.4632   12.0049 C.ar    1  UNL1        0.3343
     12 O          59.0905   88.8170   12.1512 O.2     1  UNL1       -0.2462
     13 N          66.0994   91.8591   13.9523 N.pl3   1  UNL1       -0.2925
     14 C          65.9534   92.5139   15.2939 C.3     1  UNL1        0.0936
     15 C          67.0176   93.1215   16.1589 C.3     1  UNL1        0.0385
     16 C          68.4908   93.2245   15.8958 C.3     1  UNL1        0.0704
     17 N          69.2635   92.7454   14.7029 N.3     1  UNL1       -0.2960
     18 C          68.7540   92.0448   13.4783 C.3     1  UNL1        0.0903
     19 C          67.3458   91.6504   13.1443 C.3     1  UNL1        0.1092
     20 H          69.9615   92.1097   15.0891 H       1  UNL1        0.1233
     21 C          63.6062   90.4940   15.5554 C.1     1  UNL1        0.1047
     22 N          63.5270   90.2703   17.0365 N.1     1  UNL1       -0.1907
     23 C          60.0812   89.6215    9.4361 C.3     1  UNL1        0.1826
     24 C          59.9593   88.2370    8.8718 C.2     1  UNL1        0.1961
     25 O          58.8690   87.9198    7.8917 O.2     1  UNL1       -0.2893
     26 C          61.9936   85.6984   11.1449 C.ar    1  UNL1        0.1388
     27 C          62.8644   85.0350   10.1195 C.ar    1  UNL1        0.0369
     28 C          62.7669   85.4389    8.6783 C.ar    1  UNL1        0.0032
     29 C          61.7986   86.5062    8.2623 C.ar    1  UNL1        0.0031
     30 C          60.9277   87.1697    9.2877 C.ar    1  UNL1        0.0397
     31 C          61.0252   86.7658   10.7290 C.ar    1  UNL1        0.0398
     32 C          63.4113   84.8711   13.1588 C.3     1  UNL1        0.2525
     33 O          62.0912   85.2945   12.5862 O.3     1  UNL1       -0.4714
     34 C          65.3498   91.9099   10.7767 C.3     1  UNL1        0.1332
     35 C          65.5704   93.3886   10.6549 C.2     1  UNL1       -0.0102
     36 C          66.8434   93.9102   10.0570 C.2     1  UNL1       -0.0460
     37 C          67.0640   95.3889    9.9352 C.3     1  UNL1        0.0261
     38 C          67.8957   92.9532    9.5808 C.3     1  UNL1        0.0261
@<TRIPOS>BOND
     1    32    33    1
     2    33    26    1
     3    26    27   ar
     4    27    28   ar
     5    28    29   ar
     6    29    30   ar
     7    30    24    1
     8    24    25    2
     9    24    23    1
    10    23     1    1
    11     1     2   ar
    12     2     3    2
    13     2     4   ar
    14     4     5   ar
    15     5     6   ar
    16     6    21    1
    17    21    22    3
    18     6     7   ar
    19     7    13    1
    20    13    14    1
    21    14    15    1
    22    15    16    1
    23    16    17    1
    24    17    18    1
    25    18    19    1
    26     7     8   ar
    27     8    34    1
    28    34    35    1
    29    35    36    2
    30    36    37    1
    31    36    38    1
    32     5     9   ar
    33     9    10    1
    34     9    11   ar
    35    11    12    2
    36    30    31   ar
    37    31    26   ar
    38    11     1   ar
    39     8     4   ar
    40    19    13    1
    41    17    20    1
@<TRIPOS>MOLECULE
*****
 38 41 0 0 0
SMALL
GASTEIGER

@<TRIPOS>ATOM
      1 N          63.0781   89.1264   12.7554 N.ar    1  UNL1       -0.2399
      2 C          62.7459   88.0616   11.7525 C.ar    1  UNL1        0.2819
      3 O          62.2192   88.4426   10.4006 O.2     1  UNL1       -0.2652
      4 C          62.9403   86.6158   12.1014 C.ar    1  UNL1        0.1349
      5 C          63.4670   86.2347   13.4532 C.ar    1  UNL1        0.0966
      6 C          63.5541   84.7384   13.5119 C.ar    1  UNL1        0.1156
      7 C          63.0813   84.1947   12.1963 C.ar    1  UNL1        0.1240
      8 N          62.7020   85.3549   11.3246 N.ar    1  UNL1       -0.3063
      9 N          63.7992   87.2995   14.4561 N.ar    1  UNL1       -0.2770
     10 C          64.3258   86.9186   15.8080 C.3     1  UNL1        0.1351
     11 C          63.6047   88.7454   14.1071 C.ar    1  UNL1        0.3343
     12 O          63.9369   89.8103   15.1101 O.2     1  UNL1       -0.2462
     13 N          63.0018   82.7452   11.8187 N.pl3   1  UNL1       -0.2925
     14 C          63.4637   82.4075   10.4322 C.3     1  UNL1        0.0936
     15 C          63.5088   81.0663    9.7620 C.3     1  UNL1        0.0385
     16 C          63.1031   79.7314   10.3130 C.3     1  UNL1        0.0704
     17 N          62.5521   79.4081   11.6700 N.3     1  UNL1       -0.2960
     18 C          62.2707   80.3398   12.8115 C.3     1  UNL1        0.0903
     19 C          62.4708   81.8249   12.8777 C.3     1  UNL1        0.1092
     20 H          63.2035   78.7234   12.0538 H       1  UNL1        0.1233
     21 C          64.0304   83.9281   14.6809 C.1     1  UNL1        0.1047
     22 N          64.5067   83.1179   15.8499 N.1     1  UNL1       -0.1907
     23 C          62.8836   90.5723   12.4063 C.3     1  UNL1        0.1826
     24 C          63.9114   91.2896   11.5823 C.2     1  UNL1        0.1961
     25 O          63.9656   91.0760   10.0986 O.2     1  UNL1       -0.2893
     26 C          66.2857   92.9092   14.3190 C.ar    1  UNL1        0.1388
     27 C          66.8322   94.0828   13.5614 C.ar    1  UNL1        0.0369
     28 C          66.4051   94.3254   12.1442 C.ar    1  UNL1        0.0032
     29 C          65.4315   93.3944   11.4844 C.ar    1  UNL1        0.0031
     30 C          64.8850   92.2207   12.2420 C.ar    1  UNL1        0.0397
     31 C          65.3121   91.9781   13.6593 C.ar    1  UNL1        0.0398
     32 C          68.1452   92.3439   16.0432 C.3     1  UNL1        0.2525
     33 O          66.7128   92.6666   15.7363 O.3     1  UNL1       -0.4714
     34 C          62.1765   85.2693    9.9222 C.3     1  UNL1        0.1332
     35 C          60.9228   86.0013    9.5451 C.2     1  UNL1       -0.0102
     36 C          60.4628   86.0149    8.1174 C.2     1  UNL1       -0.0460
     37 C          59.2090   86.7470    7.7403 C.3     1  UNL1        0.0261
     38 C          61.2566   85.2965    7.0669 C.3     1  UNL1        0.0261
@<TRIPOS>BOND
     1    32    33    1
     2    33    26    1
     3    26    27   ar
     4    27    28   ar
     5    28    29   ar
     6    29    30   ar
     7    30    24    1
     8    24    25    2
     9    24    23    1
    10    23     1    1
    11     1     2   ar
    12     2     3    2
    13     2     4   ar
    14     4     5   ar
    15     5     6   ar
    16     6    21    1
    17    21    22    3
    18     6     7   ar
    19     7    13    1
    20    13    14    1
    21    14    15    1
    22    15    16    1
    23    16    17    1
    24    17    18    1
    25    18    19    1
    26     7     8   ar
    27     8    34    1
    28    34    35    1
    29    35    36    2
    30    36    37    1
    31    36    38    1
    32     5     9   ar
    33     9    10    1
    34     9    11   ar
    35    11    12    2
    36    30    31   ar
    37    31    26   ar
    38    11     1   ar
    39     8     4   ar
    40    19    13    1
    41    17    20    1
