@<TRIPOS>MOLECULE
*****
 37 41 0 0 0
SMALL
GASTEIGER

@<TRIPOS>ATOM
      1 N          63.9027   86.9084   13.6879 N.ar    1  UNL1       -0.3063
      2 C          63.1189   85.9542   12.8364 C.ar    1  UNL1        0.1240
      3 C          62.5439   86.7250   11.6853 C.ar    1  UNL1        0.1156
      4 C          62.9723   88.1557   11.8253 C.ar    1  UNL1        0.0966
      5 C          63.8122   88.2690   13.0630 C.ar    1  UNL1        0.1349
      6 C          64.3859   89.5965   13.4611 C.ar    1  UNL1        0.2819
      7 O          65.2258   89.7099   14.6988 O.2     1  UNL1       -0.2652
      8 N          64.1198   90.8107   12.6215 N.ar    1  UNL1       -0.2416
      9 C          63.2801   90.6974   11.3838 C.ar    1  UNL1        0.3342
     10 O          63.0140   91.9116   10.5442 O.2     1  UNL1       -0.2462
     11 N          62.7063   89.3699   10.9857 N.ar    1  UNL1       -0.2770
     12 C          61.8665   89.2566    9.7480 C.3     1  UNL1        0.1351
     13 N          62.9412   84.4867   13.0913 N.pl3   1  UNL1       -0.2925
     14 C          63.4337   83.5736   12.0079 C.3     1  UNL1        0.0936
     15 C          63.4012   82.0746   11.9616 C.3     1  UNL1        0.0385
     16 C          62.8680   81.1186   12.9872 C.3     1  UNL1        0.0704
     17 N          62.2358   81.4254   14.3123 N.3     1  UNL1       -0.2960
     18 C          61.9806   82.7640   14.9393 C.3     1  UNL1        0.0903
     19 C          62.2945   84.1263   14.3959 C.3     1  UNL1        0.1092
     20 H          62.8141   80.9310   14.9918 H       1  UNL1        0.1233
     21 C          61.6903   86.1638   10.5869 C.1     1  UNL1        0.1047
     22 N          60.8367   85.6025    9.4886 N.1     1  UNL1       -0.1907
     23 C          64.6465   86.5627   14.9438 C.3     1  UNL1        0.1332
     24 C          62.4292   86.5119   18.2348 C.3     1  UNL1        0.0261
     25 C          63.1756   87.0184   17.0363 C.2     1  UNL1       -0.0460
     26 C          63.1975   88.4870   16.7319 C.3     1  UNL1        0.0261
     27 C          63.9001   86.0562   16.1423 C.2     1  UNL1       -0.0102
     28 C          64.6936   92.1383   13.0196 C.3     1  UNL1        0.1609
     29 C          65.4115   92.9794   12.0061 C.ar    1  UNL1        0.1012
     30 C          66.1348   92.4731   10.7934 C.ar    1  UNL1        0.0981
     31 N          66.7024   93.6552   10.0652 N.ar    1  UNL1       -0.2877
     32 C          67.5104   93.7653    8.8062 C.ar    1  UNL1        0.0815
     33 C          67.9459   95.1121    8.3097 C.ar    1  UNL1        0.0191
     34 C          67.5734   96.3489    9.0723 C.ar    1  UNL1        0.0046
     35 C          66.7654   96.2389   10.3313 C.ar    1  UNL1        0.0374
     36 C          66.3299   94.8920   10.8278 C.ar    1  UNL1        0.1475
     37 N          65.5321   94.4743   12.0273 N.ar    1  UNL1       -0.2288
@<TRIPOS>BOND
     1    24    25    1
     2    25    26    1
     3    25    27    2
     4    27    23    1
     5    23     1    1
     6     1     2   ar
     7     2    13    1
     8    13    14    1
     9    14    15    1
    10    15    16    1
    11    16    17    1
    12    17    18    1
    13    18    19    1
    14     2     3   ar
    15     3    21    1
    16    21    22    3
    17     3     4   ar
    18     4     5   ar
    19     5     6   ar
    20     6     7    2
    21     6     8   ar
    22     8    28    1
    23    28    29    1
    24    29    30   ar
    25    30    31   ar
    26    31    32   ar
    27    32    33   ar
    28    33    34   ar
    29    34    35   ar
    30    35    36   ar
    31    36    37   ar
    32     8     9   ar
    33     9    10    2
    34     9    11   ar
    35    11    12    1
    36     5     1   ar
    37    37    29   ar
    38    19    13    1
    39    11     4   ar
    40    36    31   ar
    41    17    20    1
@<TRIPOS>MOLECULE
*****
 37 41 0 0 0
SMALL
GASTEIGER

@<TRIPOS>ATOM
      1 N          62.7146   86.1426   11.5452 N.ar    1  UNL1       -0.3063
      2 C          62.9961   85.2092   12.6851 C.ar    1  UNL1        0.1240
      3 C          63.4558   86.0299   13.8536 C.ar    1  UNL1        0.1156
      4 C          63.4584   87.4705   13.4357 C.ar    1  UNL1        0.0966
      5 C          63.0004   87.5402   12.0091 C.ar    1  UNL1        0.1349
      6 C          62.9027   88.8672   11.3167 C.ar    1  UNL1        0.2819
      7 O          62.4447   88.9369    9.8900 O.2     1  UNL1       -0.2652
      8 N          63.2631   90.1246   12.0510 N.ar    1  UNL1       -0.2416
      9 C          63.7211   90.0549   13.4776 C.ar    1  UNL1        0.3342
     10 O          64.0815   91.3123   14.2120 O.2     1  UNL1       -0.2462
     11 N          63.8188   88.7279   14.1700 N.ar    1  UNL1       -0.2770
     12 C          64.2768   88.6582   15.5967 C.3     1  UNL1        0.1351
     13 N          62.8444   83.7171   12.6610 N.pl3   1  UNL1       -0.2925
     14 C          62.2041   83.1082   13.8732 C.3     1  UNL1        0.0936
     15 C          61.9144   81.6630   14.1515 C.3     1  UNL1        0.0385
     16 C          62.1935   80.4698   13.2864 C.3     1  UNL1        0.0704
     17 N          62.8310   80.4270   11.9295 N.3     1  UNL1       -0.2960
     18 C          63.3472   81.5669   11.1022 C.3     1  UNL1        0.0903
     19 C          63.3531   83.0311   11.4278 C.3     1  UNL1        0.1092
     20 H          62.1369   79.9738   11.3352 H       1  UNL1        0.1233
     21 C          63.8445   85.5025   15.2029 C.1     1  UNL1        0.1047
     22 N          64.2332   84.9751   16.5523 N.1     1  UNL1       -0.1907
     23 C          62.2322   85.7478   10.1809 C.3     1  UNL1        0.1332
     24 C          59.2259   86.5809    7.7276 C.3     1  UNL1        0.0261
     25 C          60.5434   86.0725    8.2334 C.2     1  UNL1       -0.0460
     26 C          61.4896   85.3806    7.2975 C.3     1  UNL1        0.0261
     27 C          60.9147   86.2561    9.6751 C.2     1  UNL1       -0.0102
     28 C          63.1654   91.4517   11.3586 C.3     1  UNL1        0.1609
     29 C          64.4041   92.1201   10.8401 C.ar    1  UNL1        0.1012
     30 C          64.5070   93.5389   10.3643 C.ar    1  UNL1        0.0981
     31 N          65.9238   93.7827    9.9364 N.ar    1  UNL1       -0.2877
     32 C          66.6102   94.9956    9.3817 C.ar    1  UNL1        0.0815
     33 C          68.0694   94.9404    9.0383 C.ar    1  UNL1        0.0191
     34 C          68.8421   93.6723    9.2497 C.ar    1  UNL1        0.0046
     35 C          68.1557   92.4594    9.8044 C.ar    1  UNL1        0.0374
     36 C          66.6966   92.5146   10.1478 C.ar    1  UNL1        0.1475
     37 N          65.7573   91.4870   10.7063 N.ar    1  UNL1       -0.2288
@<TRIPOS>BOND
     1    24    25    1
     2    25    26    1
     3    25    27    2
     4    27    23    1
     5    23     1    1
     6     1     2   ar
     7     2    13    1
     8    13    14    1
     9    14    15    1
    10    15    16    1
    11    16    17    1
    12    17    18    1
    13    18    19    1
    14     2     3   ar
    15     3    21    1
    16    21    22    3
    17     3     4   ar
    18     4     5   ar
    19     5     6   ar
    20     6     7    2
    21     6     8   ar
    22     8    28    1
    23    28    29    1
    24    29    30   ar
    25    30    31   ar
    26    31    32   ar
    27    32    33   ar
    28    33    34   ar
    29    34    35   ar
    30    35    36   ar
    31    36    37   ar
    32     8     9   ar
    33     9    10    2
    34     9    11   ar
    35    11    12    1
    36     5     1   ar
    37    37    29   ar
    38    19    13    1
    39    11     4   ar
    40    36    31   ar
    41    17    20    1
@<TRIPOS>MOLECULE
*****
 37 41 0 0 0
SMALL
GASTEIGER

@<TRIPOS>ATOM
      1 N          62.3857   88.1475   10.7176 N.ar    1  UNL1       -0.3063
      2 C          62.3526   86.6805   10.4062 C.ar    1  UNL1        0.1240
      3 C          62.8050   85.9370   11.6279 C.ar    1  UNL1        0.1156
      4 C          63.1176   86.9445   12.6944 C.ar    1  UNL1        0.0966
      5 C          62.8585   88.3106   12.1317 C.ar    1  UNL1        0.1349
      6 C          63.0865   89.5266   12.9798 C.ar    1  UNL1        0.2819
      7 O          62.8274   90.8928   12.4172 O.2     1  UNL1       -0.2652
      8 N          63.5738   89.3765   14.3905 N.ar    1  UNL1       -0.2416
      9 C          63.8329   88.0104   14.9531 C.ar    1  UNL1        0.3342
     10 O          64.3201   87.8603   16.3639 O.2     1  UNL1       -0.2462
     11 N          63.6048   86.7944   14.1051 N.ar    1  UNL1       -0.2770
     12 C          63.8640   85.4283   14.6677 C.3     1  UNL1        0.1351
     13 N          61.9396   86.0651    9.1021 N.pl3   1  UNL1       -0.2925
     14 C          63.0114   85.3151    8.3680 C.3     1  UNL1        0.0936
     15 C          62.9177   84.5958    7.0550 C.3     1  UNL1        0.0385
     16 C          61.7291   84.4489    6.1519 C.3     1  UNL1        0.0704
     17 N          60.3407   84.9849    6.3386 N.3     1  UNL1       -0.2960
     18 C          59.7979   85.8003    7.4747 C.3     1  UNL1        0.0903
     19 C          60.5095   86.2810    8.7045 C.3     1  UNL1        0.1092
     20 H          59.7419   84.1597    6.3074 H       1  UNL1        0.1233
     21 C          62.9238   84.4476   11.7600 C.1     1  UNL1        0.1047
     22 N          63.0426   82.9581   11.8920 N.1     1  UNL1       -0.1907
     23 C          62.0116   89.2566    9.7795 C.3     1  UNL1        0.1332
     24 C          58.9328   91.0981   11.4764 C.3     1  UNL1        0.0261
     25 C          59.8548   90.0072   11.0183 C.2     1  UNL1       -0.0460
     26 C          59.5420   88.5761   11.3409 C.3     1  UNL1        0.0261
     27 C          61.0896   90.3474   10.2376 C.2     1  UNL1       -0.0102
     28 C          63.8018   90.5926   15.2387 C.3     1  UNL1        0.1609
     29 C          65.1452   91.2599   15.2471 C.ar    1  UNL1        0.1012
     30 C          66.3183   90.8908   14.3884 C.ar    1  UNL1        0.0981
     31 N          67.4495   91.8162   14.7263 N.ar    1  UNL1       -0.2877
     32 C          68.8499   91.9236   14.1999 C.ar    1  UNL1        0.0815
     33 C          69.7763   92.9720   14.7410 C.ar    1  UNL1        0.0191
     34 C          69.3022   93.9129   15.8086 C.ar    1  UNL1        0.0046
     35 C          67.9018   93.8054   16.3351 C.ar    1  UNL1        0.0374
     36 C          66.9753   92.7571   15.7940 C.ar    1  UNL1        0.1475
     37 N          65.5512   92.4132   16.1158 N.ar    1  UNL1       -0.2288
@<TRIPOS>BOND
     1    24    25    1
     2    25    26    1
     3    25    27    2
     4    27    23    1
     5    23     1    1
     6     1     2   ar
     7     2    13    1
     8    13    14    1
     9    14    15    1
    10    15    16    1
    11    16    17    1
    12    17    18    1
    13    18    19    1
    14     2     3   ar
    15     3    21    1
    16    21    22    3
    17     3     4   ar
    18     4     5   ar
    19     5     6   ar
    20     6     7    2
    21     6     8   ar
    22     8    28    1
    23    28    29    1
    24    29    30   ar
    25    30    31   ar
    26    31    32   ar
    27    32    33   ar
    28    33    34   ar
    29    34    35   ar
    30    35    36   ar
    31    36    37   ar
    32     8     9   ar
    33     9    10    2
    34     9    11   ar
    35    11    12    1
    36     5     1   ar
    37    37    29   ar
    38    19    13    1
    39    11     4   ar
    40    36    31   ar
    41    17    20    1
@<TRIPOS>MOLECULE
*****
 37 41 0 0 0
SMALL
GASTEIGER

@<TRIPOS>ATOM
      1 N          60.3751   94.6772   -1.4746 N.ar    1  UNL1       -0.3063
      2 C          61.8684   94.8139   -1.5103 C.ar    1  UNL1        0.1240
      3 C          62.3034   94.7734   -2.9453 C.ar    1  UNL1        0.1156
      4 C          61.0789   94.6115   -3.7964 C.ar    1  UNL1        0.0966
      5 C          59.8872   94.5520   -2.8875 C.ar    1  UNL1        0.1349
      6 C          58.5116   94.3917   -3.4638 C.ar    1  UNL1        0.2819
      7 O          57.3198   94.3322   -2.5549 O.2     1  UNL1       -0.2652
      8 N          58.3279   94.2907   -4.9491 N.ar    1  UNL1       -0.2416
      9 C          59.5196   94.3502   -5.8580 C.ar    1  UNL1        0.3342
     10 O          59.3359   94.2492   -7.3433 O.2     1  UNL1       -0.2462
     11 N          60.8951   94.5106   -5.2817 N.ar    1  UNL1       -0.2770
     12 C          62.0869   94.5700   -6.1907 C.3     1  UNL1        0.1351
     13 N          62.7687   94.9648   -0.3201 N.pl3   1  UNL1       -0.2925
     14 C          63.0178   96.3728    0.1333 C.3     1  UNL1        0.0936
     15 C          63.8606   96.8515    1.2781 C.3     1  UNL1        0.0385
     16 C          64.6624   96.0403    2.2524 C.3     1  UNL1        0.0704
     17 N          64.8195   94.5502    2.3224 N.3     1  UNL1       -0.2960
     18 C          64.2135   93.5032    1.4354 C.3     1  UNL1        0.0903
     19 C          63.3009   93.6878    0.2595 C.3     1  UNL1        0.1092
     20 H          64.5043   94.3039    3.2607 H       1  UNL1        0.1233
     21 C          63.7150   94.8765   -3.4419 C.1     1  UNL1        0.1047
     22 N          65.1267   94.9797   -3.9385 N.1     1  UNL1       -0.1907
     23 C          59.5198   94.6672   -0.2423 C.3     1  UNL1        0.1332
     24 C          60.2805   92.7314    3.1377 C.3     1  UNL1        0.0261
     25 C          60.1469   93.8444    2.1409 C.2     1  UNL1       -0.0460
     26 C          60.5068   95.2475    2.5307 C.3     1  UNL1        0.0261
     27 C          59.6535   93.5543    0.7544 C.2     1  UNL1       -0.0102
     28 C          56.9523   94.1303   -5.5255 C.3     1  UNL1        0.1609
     29 C          56.2233   92.8281   -5.3751 C.ar    1  UNL1        0.1012
     30 C          55.4458   92.1240   -6.4474 C.ar    1  UNL1        0.0981
     31 N          54.8858   90.8620   -5.8610 N.ar    1  UNL1       -0.2877
     32 C          54.0388   89.7721   -6.4481 C.ar    1  UNL1        0.0815
     33 C          53.6230   88.6064   -5.6006 C.ar    1  UNL1        0.0191
     34 C          54.0544   88.5306   -4.1659 C.ar    1  UNL1        0.0046
     35 C          54.9014   89.6205   -3.5789 C.ar    1  UNL1        0.0374
     36 C          55.3171   90.7862   -4.4264 C.ar    1  UNL1        0.1475
     37 N          56.1437   92.0013   -4.1261 N.ar    1  UNL1       -0.2288
@<TRIPOS>BOND
     1    24    25    1
     2    25    26    1
     3    25    27    2
     4    27    23    1
     5    23     1    1
     6     1     2   ar
     7     2    13    1
     8    13    14    1
     9    14    15    1
    10    15    16    1
    11    16    17    1
    12    17    18    1
    13    18    19    1
    14     2     3   ar
    15     3    21    1
    16    21    22    3
    17     3     4   ar
    18     4     5   ar
    19     5     6   ar
    20     6     7    2
    21     6     8   ar
    22     8    28    1
    23    28    29    1
    24    29    30   ar
    25    30    31   ar
    26    31    32   ar
    27    32    33   ar
    28    33    34   ar
    29    34    35   ar
    30    35    36   ar
    31    36    37   ar
    32     8     9   ar
    33     9    10    2
    34     9    11   ar
    35    11    12    1
    36     5     1   ar
    37    37    29   ar
    38    19    13    1
    39    11     4   ar
    40    36    31   ar
    41    17    20    1
