@<TRIPOS>MOLECULE
*****
 37 43 0 0 0
SMALL
GASTEIGER

@<TRIPOS>ATOM
      1 N          60.7325   86.8916   11.6854 N.pl3   1  UNL1       -0.3414
      2 C          61.0663   88.3001   11.2922 C.ar    1  UNL1        0.1432
      3 N          60.1237   89.0800   10.4243 N.ar    1  UNL1       -0.2265
      4 C          60.4575   90.4885   10.0311 C.ar    1  UNL1        0.1193
      5 C          61.7340   91.1171   10.5059 C.ar    1  UNL1        0.1020
      6 N          62.6766   90.3373   11.3738 N.ar    1  UNL1       -0.2885
      7 C          62.3428   88.9288   11.7670 C.ar    1  UNL1        0.1141
      8 C          63.4581   88.4105   12.6257 C.ar    1  UNL1        0.1014
      9 N          64.4813   89.4987   12.7633 N.ar    1  UNL1       -0.2305
     10 C          63.9983   90.6896   11.9896 C.ar    1  UNL1        0.1239
     11 H          59.8947   86.4790   11.3738 H       1  UNL1        0.1438
     12 H          61.3512   86.3798   12.2550 H       1  UNL1        0.1438
     13 C          63.5365   87.0439   13.2392 C.ar    1  UNL1        0.0207
     14 C          63.8416   86.8940   14.7001 C.ar    1  UNL1        0.0016
     15 C          63.9199   85.5274   15.3135 C.ar    1  UNL1        0.0015
     16 C          63.6932   84.3108   14.4660 C.ar    1  UNL1        0.0177
     17 C          63.7716   82.9441   15.0795 C.ar    1  UNL1        0.0030
     18 C          63.5449   81.7275   14.2319 C.ar    1  UNL1        0.0191
     19 C          63.2398   81.8774   12.7709 C.ar    1  UNL1        0.0812
     20 N          63.1614   83.2440   12.1575 N.ar    1  UNL1       -0.2454
     21 C          63.3881   84.4607   13.0050 C.ar    1  UNL1        0.0813
     22 C          63.3098   85.8272   12.3916 C.ar    1  UNL1        0.0206
     23 C          63.0131   80.6608   11.9233 C.ar    1  UNL1        0.0176
     24 C          62.6527   79.3547   12.5672 C.ar    1  UNL1        0.0015
     25 C          62.4260   78.1381   11.7196 C.ar    1  UNL1        0.0000
     26 C          62.5597   78.2275   10.2282 C.ar    1  UNL1        0.0000
     27 C          62.9201   79.5334    9.5845 C.ar    1  UNL1        0.0000
     28 C          63.1468   80.7501   10.4320 C.ar    1  UNL1        0.0015
     29 C          64.7117   92.0022   11.8552 C.3     1  UNL1        0.0573
     30 C          64.9605   92.9640   10.7314 C.3     1  UNL1        0.0089
     31 C          65.7207   93.8585   11.6652 C.3     1  UNL1        0.0168
     32 C          65.4719   92.8967   12.7890 C.3     1  UNL1        0.0089
     33 C          66.4341   95.1712   11.5308 C.3     1  UNL1        0.0721
     34 N          66.7811   95.7004   10.1709 N.3     1  UNL1       -0.2726
     35 C          66.3196   96.8558    9.3329 C.3     1  UNL1        0.0735
     36 C          67.2719   96.4489    8.2476 C.3     1  UNL1        0.0346
     37 C          67.7333   95.2936    9.0857 C.3     1  UNL1        0.0735
@<TRIPOS>BOND
     1     1     2    1
     2     2     3   ar
     3     3     4   ar
     4     4     5   ar
     5     5     6   ar
     6     6     7   ar
     7     7     8   ar
     8     8    13    1
     9    13    14   ar
    10    14    15   ar
    11    15    16   ar
    12    16    17   ar
    13    17    18   ar
    14    18    19   ar
    15    19    23    1
    16    23    24   ar
    17    24    25   ar
    18    25    26   ar
    19    26    27   ar
    20    27    28   ar
    21    19    20   ar
    22    20    21   ar
    23    21    22   ar
    24     8     9   ar
    25     9    10   ar
    26    29    10    1
    27    29    30    1
    28    30    31    1
    29    31    33    1
    30    33    34    1
    31    34    35    1
    32    35    36    1
    33    36    37    1
    34    31    32    1
    35     7     2   ar
    36    22    13   ar
    37    32    29    1
    38    10     6   ar
    39    37    34    1
    40    21    16   ar
    41    28    23   ar
    42     1    11    1
    43     1    12    1
@<TRIPOS>MOLECULE
*****
 37 43 0 0 0
SMALL
GASTEIGER

@<TRIPOS>ATOM
      1 N          62.2773   90.0921   10.1256 N.pl3   1  UNL1       -0.3414
      2 C          61.8490   88.6548   10.1531 C.ar    1  UNL1        0.1432
      3 N          60.9168   88.1297    9.1017 N.ar    1  UNL1       -0.2265
      4 C          60.4886   86.6924    9.1292 C.ar    1  UNL1        0.1193
      5 C          60.9926   85.7802   10.2082 C.ar    1  UNL1        0.1020
      6 N          61.9247   86.3053   11.2594 N.ar    1  UNL1       -0.2885
      7 C          62.3530   87.7426   11.2319 C.ar    1  UNL1        0.1141
      8 C          63.2739   87.9742   12.3930 C.ar    1  UNL1        0.1014
      9 N          63.4149   86.6801   13.1382 N.ar    1  UNL1       -0.2305
     10 C          62.5811   85.6486   12.4376 C.ar    1  UNL1        0.1239
     11 H          61.9465   90.6908    9.4175 H       1  UNL1        0.1438
     12 H          62.8891   90.4367   10.8156 H       1  UNL1        0.1438
     13 C          63.9374   89.2722   12.7469 C.ar    1  UNL1        0.0207
     14 C          64.2839   89.5725   14.1751 C.ar    1  UNL1        0.0016
     15 C          64.9473   90.8704   14.5288 C.ar    1  UNL1        0.0015
     16 C          65.2644   91.8680   13.4544 C.ar    1  UNL1        0.0177
     17 C          65.9279   93.1660   13.8083 C.ar    1  UNL1        0.0030
     18 C          66.2450   94.1635   12.7339 C.ar    1  UNL1        0.0191
     19 C          65.8985   93.8631   11.3056 C.ar    1  UNL1        0.0812
     20 N          65.2350   92.5652   10.9518 N.ar    1  UNL1       -0.2454
     21 C          64.9180   91.5677   12.0263 C.ar    1  UNL1        0.0813
     22 C          64.2545   90.2698   11.6725 C.ar    1  UNL1        0.0206
     23 C          66.2156   94.8607   10.2312 C.ar    1  UNL1        0.0176
     24 C          67.5685   94.8606    9.5833 C.ar    1  UNL1        0.0015
     25 C          67.8855   95.8581    8.5089 C.ar    1  UNL1        0.0000
     26 C          66.8497   96.8558    8.0824 C.ar    1  UNL1        0.0000
     27 C          65.4969   96.8559    8.7303 C.ar    1  UNL1        0.0000
     28 C          65.1798   95.8583    9.8047 C.ar    1  UNL1        0.0015
     29 C          62.4300   84.2126   12.8439 C.3     1  UNL1        0.0573
     30 C          62.4757   82.8966   12.1254 C.3     1  UNL1        0.0089
     31 C          62.2164   82.1818   13.4184 C.3     1  UNL1        0.0168
     32 C          62.1707   83.4977   14.1368 C.3     1  UNL1        0.0089
     33 C          62.0654   80.7457   13.8246 C.3     1  UNL1        0.0721
     34 N          60.7012   80.1803   14.0881 N.3     1  UNL1       -0.2726
     35 C          60.1399   78.7996   14.2571 C.3     1  UNL1        0.0735
     36 C          58.7720   79.3806   14.4606 C.3     1  UNL1        0.0346
     37 C          59.3334   80.7613   14.2916 C.3     1  UNL1        0.0735
@<TRIPOS>BOND
     1     1     2    1
     2     2     3   ar
     3     3     4   ar
     4     4     5   ar
     5     5     6   ar
     6     6     7   ar
     7     7     8   ar
     8     8    13    1
     9    13    14   ar
    10    14    15   ar
    11    15    16   ar
    12    16    17   ar
    13    17    18   ar
    14    18    19   ar
    15    19    23    1
    16    23    24   ar
    17    24    25   ar
    18    25    26   ar
    19    26    27   ar
    20    27    28   ar
    21    19    20   ar
    22    20    21   ar
    23    21    22   ar
    24     8     9   ar
    25     9    10   ar
    26    29    10    1
    27    29    30    1
    28    30    31    1
    29    31    33    1
    30    33    34    1
    31    34    35    1
    32    35    36    1
    33    36    37    1
    34    31    32    1
    35     7     2   ar
    36    22    13   ar
    37    32    29    1
    38    10     6   ar
    39    37    34    1
    40    21    16   ar
    41    28    23   ar
    42     1    11    1
    43     1    12    1
@<TRIPOS>MOLECULE
*****
 37 43 0 0 0
SMALL
GASTEIGER

@<TRIPOS>ATOM
      1 N          63.6202   90.0143   17.2486 N.pl3   1  UNL1       -0.3414
      2 C          63.2576   88.6027   16.8940 C.ar    1  UNL1        0.1432
      3 N          62.5438   87.7386   17.8910 N.ar    1  UNL1       -0.2265
      4 C          62.1813   86.3270   17.5365 C.ar    1  UNL1        0.1193
      5 C          62.5325   85.7794   16.1848 C.ar    1  UNL1        0.1020
      6 N          63.2463   86.6434   15.1879 N.ar    1  UNL1       -0.2885
      7 C          63.6088   88.0550   15.5425 C.ar    1  UNL1        0.1141
      8 C          64.3057   88.6650   14.3625 C.ar    1  UNL1        0.1014
      9 N          64.3738   87.6303   13.2786 N.ar    1  UNL1       -0.2305
     10 C          63.7190   86.3809   13.7887 C.ar    1  UNL1        0.1239
     11 H          63.3897   90.3738   18.1357 H       1  UNL1        0.1438
     12 H          64.0887   90.5814   16.5942 H       1  UNL1        0.1438
     13 C          64.8405   90.0641   14.2807 C.ar    1  UNL1        0.0207
     14 C          65.3377   90.7505   15.5183 C.ar    1  UNL1        0.0016
     15 C          65.8725   92.1495   15.4365 C.ar    1  UNL1        0.0015
     16 C          65.9101   92.8621   14.1172 C.ar    1  UNL1        0.0177
     17 C          66.4449   94.2612   14.0354 C.ar    1  UNL1        0.0030
     18 C          66.4825   94.9738   12.7161 C.ar    1  UNL1        0.0191
     19 C          65.9853   94.2874   11.4784 C.ar    1  UNL1        0.0812
     20 N          65.4505   92.8884   11.5602 N.ar    1  UNL1       -0.2454
     21 C          65.4129   92.1757   12.8796 C.ar    1  UNL1        0.0813
     22 C          64.8781   90.7767   12.9614 C.ar    1  UNL1        0.0206
     23 C          66.0230   95.0000   10.1591 C.ar    1  UNL1        0.0176
     24 C          67.0071   94.5801    9.1077 C.ar    1  UNL1        0.0015
     25 C          67.0447   95.2928    7.7883 C.ar    1  UNL1        0.0000
     26 C          66.0982   96.4253    7.5203 C.ar    1  UNL1        0.0000
     27 C          65.1142   96.8451    8.5717 C.ar    1  UNL1        0.0000
     28 C          65.0766   96.1324    9.8911 C.ar    1  UNL1        0.0015
     29 C          63.5642   85.0947   13.0325 C.3     1  UNL1        0.0573
     30 C          64.2502   83.7610   13.0565 C.3     1  UNL1        0.0089
     31 C          63.3453   83.2759   11.9629 C.3     1  UNL1        0.0168
     32 C          62.6593   84.6097   11.9389 C.3     1  UNL1        0.0089
     33 C          63.1905   81.9898   11.2067 C.3     1  UNL1        0.0721
     34 N          62.8072   80.7343   11.9326 N.3     1  UNL1       -0.2726
     35 C          62.7044   79.2844   11.5623 C.3     1  UNL1        0.0735
     36 C          62.2652   78.9588   12.9592 C.3     1  UNL1        0.0346
     37 C          62.3681   80.4088   13.3294 C.3     1  UNL1        0.0735
@<TRIPOS>BOND
     1     1     2    1
     2     2     3   ar
     3     3     4   ar
     4     4     5   ar
     5     5     6   ar
     6     6     7   ar
     7     7     8   ar
     8     8    13    1
     9    13    14   ar
    10    14    15   ar
    11    15    16   ar
    12    16    17   ar
    13    17    18   ar
    14    18    19   ar
    15    19    23    1
    16    23    24   ar
    17    24    25   ar
    18    25    26   ar
    19    26    27   ar
    20    27    28   ar
    21    19    20   ar
    22    20    21   ar
    23    21    22   ar
    24     8     9   ar
    25     9    10   ar
    26    29    10    1
    27    29    30    1
    28    30    31    1
    29    31    33    1
    30    33    34    1
    31    34    35    1
    32    35    36    1
    33    36    37    1
    34    31    32    1
    35     7     2   ar
    36    22    13   ar
    37    32    29    1
    38    10     6   ar
    39    37    34    1
    40    21    16   ar
    41    28    23   ar
    42     1    11    1
    43     1    12    1
@<TRIPOS>MOLECULE
*****
 37 43 0 0 0
SMALL
GASTEIGER

@<TRIPOS>ATOM
      1 N          61.4970   86.3447   11.1704 N.pl3   1  UNL1       -0.3414
      2 C          60.9708   86.5793    9.7855 C.ar    1  UNL1        0.1432
      3 N          60.6747   85.4142    8.8884 N.ar    1  UNL1       -0.2265
      4 C          60.1485   85.6488    7.5034 C.ar    1  UNL1        0.1193
      5 C          59.9186   87.0486    7.0156 C.ar    1  UNL1        0.1020
      6 N          60.2147   88.2136    7.9127 N.ar    1  UNL1       -0.2885
      7 C          60.7409   87.9790    9.2976 C.ar    1  UNL1        0.1141
      8 C          60.9398   89.3148    9.9504 C.ar    1  UNL1        0.1014
      9 N          60.5366   90.3750    8.9689 N.ar    1  UNL1       -0.2305
     10 C          60.0885   89.6944    7.7095 C.ar    1  UNL1        0.1239
     11 H          61.6479   85.4261   11.4906 H       1  UNL1        0.1438
     12 H          61.6913   87.1094   11.7593 H       1  UNL1        0.1438
     13 C          61.4520   89.5492   11.3407 C.ar    1  UNL1        0.0207
     14 C          60.6106   89.1715   12.5236 C.ar    1  UNL1        0.0016
     15 C          61.1229   89.4060   13.9137 C.ar    1  UNL1        0.0015
     16 C          62.4765   90.0181   14.1210 C.ar    1  UNL1        0.0177
     17 C          62.9887   90.2525   15.5113 C.ar    1  UNL1        0.0030
     18 C          64.3423   90.8647   15.7185 C.ar    1  UNL1        0.0191
     19 C          65.1837   91.2424   14.5355 C.ar    1  UNL1        0.0812
     20 N          64.6715   91.0080   13.1453 N.ar    1  UNL1       -0.2454
     21 C          63.3179   90.3958   12.9381 C.ar    1  UNL1        0.0813
     22 C          62.8057   90.1614   11.5479 C.ar    1  UNL1        0.0206
     23 C          66.5374   91.8546   14.7428 C.ar    1  UNL1        0.0176
     24 C          67.6300   91.6146   13.7434 C.ar    1  UNL1        0.0015
     25 C          68.9836   92.2268   13.9507 C.ar    1  UNL1        0.0000
     26 C          69.2446   93.0789   15.1573 C.ar    1  UNL1        0.0000
     27 C          68.1520   93.3189   16.1566 C.ar    1  UNL1        0.0000
     28 C          66.7984   92.7067   15.9493 C.ar    1  UNL1        0.0015
     29 C          59.5999   90.3752    6.4653 C.3     1  UNL1        0.0573
     30 C          58.2553   90.7703    5.9307 C.3     1  UNL1        0.0089
     31 C          58.9091   91.3378    4.7058 C.3     1  UNL1        0.0168
     32 C          60.2537   90.9427    5.2404 C.3     1  UNL1        0.0089
     33 C          58.4205   92.0186    3.4616 C.3     1  UNL1        0.0721
     34 N          59.3827   92.7716    2.5915 N.3     1  UNL1       -0.2726
     35 C          59.3769   93.2485    1.1694 C.3     1  UNL1        0.0735
     36 C          60.7435   93.8365    1.3609 C.3     1  UNL1        0.0346
     37 C          60.7493   93.3595    2.7831 C.3     1  UNL1        0.0735
@<TRIPOS>BOND
     1     1     2    1
     2     2     3   ar
     3     3     4   ar
     4     4     5   ar
     5     5     6   ar
     6     6     7   ar
     7     7     8   ar
     8     8    13    1
     9    13    14   ar
    10    14    15   ar
    11    15    16   ar
    12    16    17   ar
    13    17    18   ar
    14    18    19   ar
    15    19    23    1
    16    23    24   ar
    17    24    25   ar
    18    25    26   ar
    19    26    27   ar
    20    27    28   ar
    21    19    20   ar
    22    20    21   ar
    23    21    22   ar
    24     8     9   ar
    25     9    10   ar
    26    29    10    1
    27    29    30    1
    28    30    31    1
    29    31    33    1
    30    33    34    1
    31    34    35    1
    32    35    36    1
    33    36    37    1
    34    31    32    1
    35     7     2   ar
    36    22    13   ar
    37    32    29    1
    38    10     6   ar
    39    37    34    1
    40    21    16   ar
    41    28    23   ar
    42     1    11    1
    43     1    12    1
