@<TRIPOS>MOLECULE
*****
 56 63 0 0 0
SMALL
GASTEIGER

@<TRIPOS>ATOM
      1 N          62.4082   94.6347   -3.3613 N.3     1  UNL1       -0.1862
      2 C          61.3203   94.2448   -4.3175 C.3     1  UNL1        0.1775
      3 C          59.9987   93.7650   -3.7947 C.2     1  UNL1        0.2452
      4 O          58.9108   93.3751   -4.7510 O.2     1  UNL1       -0.2732
      5 N          59.7651   93.6750   -2.3158 N.am    1  UNL1       -0.2541
      6 C          58.4436   93.1952   -1.7930 C.3     1  UNL1        0.1577
      7 C          58.2100   93.1052   -0.3141 C.2     1  UNL1        0.2445
      8 O          56.8885   92.6254    0.2087 O.2     1  UNL1       -0.2731
      9 N          59.2980   93.4952    0.6422 N.am    1  UNL1       -0.2705
     10 C          60.6195   93.9750    0.1194 C.3     1  UNL1        0.1359
     11 C          60.8531   94.0649   -1.3596 C.3     1  UNL1        0.1908
     12 N          62.1746   94.5448   -1.8824 N.am    1  UNL1       -0.1863
     13 C          63.2626   94.9347   -0.9261 C.2     1  UNL1        0.3191
     14 O          63.0290   94.8447    0.5528 O.2     1  UNL1       -0.2512
     15 N          64.5841   95.4145   -1.4489 N.am    1  UNL1       -0.2836
     16 H          64.7374   95.4735   -2.4196 H       1  UNL1        0.1513
     17 C          63.7298   95.1145   -3.8841 C.3     1  UNL1        0.1188
     18 C          64.1301   95.8396   -6.3466 C.2     1  UNL1       -0.0034
     19 C          64.1483   94.7800   -5.2851 C.2     1  UNL1       -0.0071
     20 C          57.3557   92.8053   -2.7492 C.3     1  UNL1        0.0556
     21 C          56.2695   93.7826   -3.0884 C.ar    1  UNL1       -0.0198
     22 C          55.4572   94.4105   -1.9949 C.ar    1  UNL1       -0.0011
     23 C          54.3710   95.3878   -2.3341 C.ar    1  UNL1        0.0363
     24 C          54.0971   95.7372   -3.7668 C.ar    1  UNL1        0.1337
     25 O          53.0109   96.7145   -4.1061 O.3     1  UNL1       -0.5055
     26 C          54.9094   95.1093   -4.8605 C.ar    1  UNL1        0.0363
     27 C          55.9956   94.1320   -4.5213 C.ar    1  UNL1       -0.0011
     28 H          52.5035   97.1068   -3.4229 H       1  UNL1        0.2922
     29 C          59.0644   93.4052    2.1211 C.3     1  UNL1        0.1217
     30 C          59.9296   92.5161    2.9644 C.ar    1  UNL1        0.0135
     31 C          61.4005   92.4192    2.6872 C.ar    1  UNL1       -0.0012
     32 C          62.2657   91.5302    3.5304 C.ar    1  UNL1       -0.0002
     33 C          61.6599   90.7380    4.6508 C.ar    1  UNL1        0.0015
     34 C          60.1889   90.8349    4.9280 C.ar    1  UNL1        0.0170
     35 C          59.3159   90.1784    5.9560 C.ar    1  UNL1        0.0201
     36 C          57.9112   90.6617    5.7482 C.ar    1  UNL1        0.0760
     37 N          57.9161   91.6169    4.5917 N.ar    1  UNL1       -0.3242
     38 C          56.7227   92.3384    4.0391 C.3     1  UNL1        0.1305
     39 C          59.3237   91.7239    4.0848 C.ar    1  UNL1        0.0575
     40 C          59.7682   89.2087    7.0074 C.ar    1  UNL1        0.0207
     41 C          59.3864   87.7616    6.9071 C.ar    1  UNL1        0.0988
     42 N          59.8388   86.7920    7.9584 N.ar    1  UNL1       -0.2438
     43 C          60.6728   87.2696    9.1101 C.ar    1  UNL1        0.0813
     44 C          61.1251   86.2999   10.1614 C.ar    1  UNL1        0.0191
     45 C          61.9592   86.7775   11.3130 C.ar    1  UNL1        0.0015
     46 C          62.3409   88.2246   11.4134 C.ar    1  UNL1        0.0001
     47 C          61.8886   89.1942   10.3621 C.ar    1  UNL1        0.0015
     48 C          61.0546   88.7167    9.2104 C.ar    1  UNL1        0.0177
     49 C          60.6023   89.6862    8.1591 C.ar    1  UNL1        0.0031
     50 C          65.6721   95.8044   -0.4927 C.3     1  UNL1        0.1177
     51 C          65.4637   95.6485    0.9845 C.ar    1  UNL1       -0.0025
     52 C          65.2416   94.2859    1.5710 C.ar    1  UNL1       -0.0026
     53 C          65.0332   94.1301    3.0482 C.ar    1  UNL1       -0.0003
     54 C          65.0469   95.3368    3.9390 C.ar    1  UNL1       -0.0000
     55 C          65.2690   96.6995    3.3526 C.ar    1  UNL1       -0.0003
     56 C          65.4774   96.8554    1.8753 C.ar    1  UNL1       -0.0026
@<TRIPOS>BOND
     1    18    19    2
     2    19    17    1
     3    17     1    1
     4     1     2    1
     5     2     3    1
     6     3     4    2
     7     3     5   am
     8     5     6    1
     9     6    20    1
    10    20    21    1
    11    21    22   ar
    12    22    23   ar
    13    23    24   ar
    14    24    25    1
    15    24    26   ar
    16    26    27   ar
    17     6     7    1
    18     7     8    2
    19     7     9   am
    20     9    29    1
    21    29    30    1
    22    30    31   ar
    23    31    32   ar
    24    32    33   ar
    25    33    34   ar
    26    34    35   ar
    27    35    40    1
    28    40    41   ar
    29    41    42   ar
    30    42    43   ar
    31    43    44   ar
    32    44    45   ar
    33    45    46   ar
    34    46    47   ar
    35    47    48   ar
    36    48    49   ar
    37    35    36   ar
    38    36    37   ar
    39    37    38    1
    40    37    39   ar
    41     9    10    1
    42    11    10    1
    43    11    12    1
    44    12    13   am
    45    13    14    2
    46    13    15   am
    47    15    50    1
    48    50    51    1
    49    51    52   ar
    50    52    53   ar
    51    53    54   ar
    52    54    55   ar
    53    55    56   ar
    54    12     1    1
    55    56    51   ar
    56    11     5    1
    57    27    21   ar
    58    39    30   ar
    59    39    34   ar
    60    49    40   ar
    61    48    43   ar
    62    25    28    1
    63    15    16    1
@<TRIPOS>MOLECULE
*****
 56 63 0 0 0
SMALL
GASTEIGER

@<TRIPOS>ATOM
      1 N          62.5771   84.2141    9.2505 N.3     1  UNL1       -0.1862
      2 C          61.8504   84.3291    7.9434 C.3     1  UNL1        0.1775
      3 C          61.0374   85.5532    7.6424 C.2     1  UNL1        0.2452
      4 O          60.3106   85.6681    6.3352 O.2     1  UNL1       -0.2732
      5 N          60.9512   86.6624    8.6485 N.am    1  UNL1       -0.2541
      6 C          60.1382   87.8865    8.3474 C.3     1  UNL1        0.1577
      7 C          60.0520   88.9956    9.3535 C.2     1  UNL1        0.2445
      8 O          59.2390   90.2198    9.0525 O.2     1  UNL1       -0.2731
      9 N          60.7788   88.8808   10.6607 N.am    1  UNL1       -0.2705
     10 C          61.5918   87.6566   10.9617 C.3     1  UNL1        0.1359
     11 C          61.6779   86.5474    9.9556 C.3     1  UNL1        0.1908
     12 N          62.4909   85.3233   10.2566 N.am    1  UNL1       -0.1863
     13 C          63.2177   85.2084   11.5638 C.2     1  UNL1        0.3191
     14 O          63.1315   86.3176   12.5698 O.2     1  UNL1       -0.2512
     15 N          64.0307   83.9843   11.8648 N.am    1  UNL1       -0.2836
     16 H          64.0873   83.2563   11.2044 H       1  UNL1        0.1513
     17 C          63.3901   82.9900    9.5515 C.3     1  UNL1        0.1188
     18 C          63.2192   80.4823   10.2088 C.2     1  UNL1       -0.0034
     19 C          62.8268   81.9130   10.4304 C.2     1  UNL1       -0.0071
     20 C          59.4114   88.0014    7.0403 C.3     1  UNL1        0.0556
     21 C          59.4005   89.3062    6.3005 C.ar    1  UNL1       -0.0198
     22 C          58.1026   90.0147    6.0487 C.ar    1  UNL1       -0.0011
     23 C          58.0916   91.3195    5.3089 C.ar    1  UNL1        0.0363
     24 C          59.3785   91.9158    4.8208 C.ar    1  UNL1        0.1337
     25 O          59.3675   93.2206    4.0809 O.3     1  UNL1       -0.5055
     26 C          60.6765   91.2073    5.0725 C.ar    1  UNL1        0.0363
     27 C          60.6875   89.9025    5.8124 C.ar    1  UNL1       -0.0011
     28 H          58.5568   93.6632    3.9236 H       1  UNL1        0.2922
     29 C          60.6926   89.9899   11.6668 C.3     1  UNL1        0.1217
     30 C          61.7973   90.1872   12.6622 C.ar    1  UNL1        0.0135
     31 C          61.6133   89.7459   14.0840 C.ar    1  UNL1       -0.0012
     32 C          62.7179   89.9431   15.0794 C.ar    1  UNL1       -0.0002
     33 C          64.0065   90.5816   14.6530 C.ar    1  UNL1        0.0015
     34 C          64.1904   91.0229   13.2313 C.ar    1  UNL1        0.0170
     35 C          65.3404   91.6768   12.5241 C.ar    1  UNL1        0.0201
     36 C          64.9464   91.8837   11.0916 C.ar    1  UNL1        0.0760
     37 N          63.5531   91.3577   10.9135 N.ar    1  UNL1       -0.3242
     38 C          62.7652   91.3628    9.6371 C.3     1  UNL1        0.1305
     39 C          63.0858   90.8257   12.2359 C.ar    1  UNL1        0.0575
     40 C          66.6537   92.0571   13.1411 C.ar    1  UNL1        0.0207
     41 C          67.9325   91.5094   12.5800 C.ar    1  UNL1        0.0988
     42 N          69.2457   91.8897   13.1970 N.ar    1  UNL1       -0.2438
     43 C          69.2802   92.8175   14.3751 C.ar    1  UNL1        0.0813
     44 C          70.5935   93.1977   14.9921 C.ar    1  UNL1        0.0191
     45 C          70.6280   94.1256   16.1702 C.ar    1  UNL1        0.0015
     46 C          69.3493   94.6732   16.7314 C.ar    1  UNL1        0.0001
     47 C          68.0360   94.2929   16.1144 C.ar    1  UNL1        0.0015
     48 C          68.0015   93.3651   14.9363 C.ar    1  UNL1        0.0177
     49 C          66.6882   92.9849   14.3192 C.ar    1  UNL1        0.0031
     50 C          64.7575   83.8694   13.1719 C.3     1  UNL1        0.1177
     51 C          64.1944   84.5163   14.4025 C.ar    1  UNL1       -0.0025
     52 C          64.8168   85.7697   14.9426 C.ar    1  UNL1       -0.0026
     53 C          64.2537   86.4166   16.1732 C.ar    1  UNL1       -0.0003
     54 C          63.0683   85.8101   16.8638 C.ar    1  UNL1       -0.0000
     55 C          62.4459   84.5567   16.3238 C.ar    1  UNL1       -0.0003
     56 C          63.0089   83.9098   15.0931 C.ar    1  UNL1       -0.0026
@<TRIPOS>BOND
     1    18    19    2
     2    19    17    1
     3    17     1    1
     4     1     2    1
     5     2     3    1
     6     3     4    2
     7     3     5   am
     8     5     6    1
     9     6    20    1
    10    20    21    1
    11    21    22   ar
    12    22    23   ar
    13    23    24   ar
    14    24    25    1
    15    24    26   ar
    16    26    27   ar
    17     6     7    1
    18     7     8    2
    19     7     9   am
    20     9    29    1
    21    29    30    1
    22    30    31   ar
    23    31    32   ar
    24    32    33   ar
    25    33    34   ar
    26    34    35   ar
    27    35    40    1
    28    40    41   ar
    29    41    42   ar
    30    42    43   ar
    31    43    44   ar
    32    44    45   ar
    33    45    46   ar
    34    46    47   ar
    35    47    48   ar
    36    48    49   ar
    37    35    36   ar
    38    36    37   ar
    39    37    38    1
    40    37    39   ar
    41     9    10    1
    42    11    10    1
    43    11    12    1
    44    12    13   am
    45    13    14    2
    46    13    15   am
    47    15    50    1
    48    50    51    1
    49    51    52   ar
    50    52    53   ar
    51    53    54   ar
    52    54    55   ar
    53    55    56   ar
    54    12     1    1
    55    56    51   ar
    56    11     5    1
    57    27    21   ar
    58    39    30   ar
    59    39    34   ar
    60    49    40   ar
    61    48    43   ar
    62    25    28    1
    63    15    16    1
