@<TRIPOS>MOLECULE
*****
 34 36 0 0 0
SMALL
GASTEIGER

@<TRIPOS>ATOM
      1 C          62.8399   90.0167   11.8237 C.ar    1  UNL1        0.0842
      2 C          62.9505   88.5279   11.6780 C.ar    1  UNL1        0.0146
      3 C          61.9535   88.0876   10.6474 C.ar    1  UNL1        0.0423
      4 C          61.6135   86.7360   10.0929 C.ar    1  UNL1        0.0870
      5 N          60.5467   86.6010    9.0470 N.ar    1  UNL1       -0.2139
      6 C          59.8199   87.8178    8.5557 C.ar    1  UNL1        0.2141
      7 N          58.7531   87.6829    7.5099 N.pl3   1  UNL1       -0.3274
      8 N          60.1599   89.1694    9.1103 N.ar    1  UNL1       -0.2074
      9 C          61.2267   89.3043   10.1562 C.ar    1  UNL1        0.1151
     10 S          61.7746   90.4965   10.8831 S.2     1  UNL1       -0.0633
     11 H          58.5300   86.7958    7.1460 H       1  UNL1        0.1452
     12 H          58.2761   88.4815    7.1875 H       1  UNL1        0.1452
     13 C          62.3403   85.5193   10.5842 C.ar    1  UNL1        0.0314
     14 C          62.2410   85.1174   12.0259 C.ar    1  UNL1        0.0401
     15 C          62.9678   83.9007   12.5172 C.ar    1  UNL1        0.1492
     16 C          63.7939   83.0858   11.5667 C.ar    1  UNL1        0.0924
     17 CL         64.5207   81.8691   12.0580 Cl      1  UNL1       -0.0791
     18 C          63.8933   83.4876   10.1249 C.ar    1  UNL1        0.0259
     19 C          63.1665   84.7043    9.6336 C.ar    1  UNL1        0.0601
     20 CL         63.2658   85.1062    8.1919 Cl      1  UNL1       -0.0822
     21 O          62.8684   83.4989   13.9590 O.3     1  UNL1       -0.4731
     22 C          62.0372   84.3102   14.9081 C.3     1  UNL1        0.2227
     23 C          62.6557   84.8746   16.1526 C.3     1  UNL1        0.1200
     24 N          63.2646   86.2453   16.1324 N.3     1  UNL1       -0.2696
     25 C          62.8929   87.2467   17.1854 C.3     1  UNL1        0.0722
     26 C          63.0863   88.7118   16.9286 C.3     1  UNL1        0.0188
     27 C          64.2452   86.6146   15.0590 C.3     1  UNL1        0.0722
     28 C          65.4068   85.7132   14.7621 C.3     1  UNL1        0.0188
     29 N          64.8175   91.6554   12.2159 N.am    1  UNL1       -0.3005
     30 C          63.6521   90.8749   12.7477 C.2     1  UNL1        0.2519
     31 O          63.2990   90.9527   14.2034 O.2     1  UNL1       -0.2696
     32 H          65.0493   91.6044   11.2605 H       1  UNL1        0.1498
     33 C          66.7529   91.9105   13.9303 C.3     1  UNL1        0.0230
     34 C          65.6297   92.5136   13.1399 C.3     1  UNL1        0.0898
@<TRIPOS>BOND
     1    33    34    1
     2    34    29    1
     3    29    30   am
     4    30    31    2
     5    30     1    1
     6     1     2   ar
     7     2     3   ar
     8     3     4   ar
     9     4    13    1
    10    13    14   ar
    11    14    15   ar
    12    15    21    1
    13    21    22    1
    14    22    23    1
    15    23    24    1
    16    24    25    1
    17    25    26    1
    18    24    27    1
    19    27    28    1
    20    15    16   ar
    21    16    17    1
    22    16    18   ar
    23    18    19   ar
    24    19    20    1
    25     4     5   ar
    26     5     6   ar
    27     6     7    1
    28     6     8   ar
    29     8     9   ar
    30     9    10   ar
    31    10     1   ar
    32     9     3   ar
    33    19    13   ar
    34    29    32    1
    35     7    11    1
    36     7    12    1
@<TRIPOS>MOLECULE
*****
 34 36 0 0 0
SMALL
GASTEIGER

@<TRIPOS>ATOM
      1 C          62.0291   90.2031   10.7641 C.ar    1  UNL1        0.0842
      2 C          62.3988   89.6232   12.0972 C.ar    1  UNL1        0.0146
      3 C          63.6367   90.3202   12.5787 C.ar    1  UNL1        0.0423
      4 C          64.4549   90.1651   13.8262 C.ar    1  UNL1        0.0870
      5 N          65.6686   91.0208   14.0384 N.ar    1  UNL1       -0.2139
      6 C          66.0640   92.0315   13.0029 C.ar    1  UNL1        0.2141
      7 N          67.2776   92.8871   13.2150 N.pl3   1  UNL1       -0.3274
      8 N          65.2457   92.1866   11.7554 N.ar    1  UNL1       -0.2074
      9 C          64.0321   91.3309   11.5433 C.ar    1  UNL1        0.1151
     10 S          63.0385   91.2586   10.4218 S.2     1  UNL1       -0.0633
     11 H          67.8146   92.7853   14.0338 H       1  UNL1        0.1452
     12 H          67.5370   93.5505   12.5354 H       1  UNL1        0.1452
     13 C          64.0596   89.1544   14.8617 C.ar    1  UNL1        0.0314
     14 C          64.2715   87.6924   14.6019 C.ar    1  UNL1        0.0401
     15 C          63.8761   86.6816   15.6374 C.ar    1  UNL1        0.1492
     16 C          63.2689   87.1329   16.9325 C.ar    1  UNL1        0.0924
     17 CL         62.8735   86.1222   17.9680 Cl      1  UNL1       -0.0791
     18 C          63.0570   88.5951   17.1923 C.ar    1  UNL1        0.0259
     19 C          63.4523   89.6058   16.1569 C.ar    1  UNL1        0.0601
     20 CL         63.2404   91.0678   16.4166 Cl      1  UNL1       -0.0822
     21 O          64.0880   85.2195   15.3776 O.3     1  UNL1       -0.4731
     22 C          64.2478   84.7231   13.9712 C.3     1  UNL1        0.2227
     23 C          63.0545   84.2234   13.2121 C.3     1  UNL1        0.1200
     24 N          62.7864   82.7503   13.1211 N.3     1  UNL1       -0.2696
     25 C          63.1663   81.9940   11.8827 C.3     1  UNL1        0.0722
     26 C          63.8872   82.6931   10.7685 C.3     1  UNL1        0.0188
     27 C          62.1385   82.0336   14.2685 C.3     1  UNL1        0.0722
     28 C          61.1202   80.9641   14.0059 C.3     1  UNL1        0.0188
     29 N          60.9465   88.5868    9.0422 N.am    1  UNL1       -0.3005
     30 C          60.8560   89.7987    9.9214 C.2     1  UNL1        0.2519
     31 O          59.5924   90.6061    9.9579 O.2     1  UNL1       -0.2696
     32 H          61.7758   88.0568    9.0182 H       1  UNL1        0.1498
     33 C          59.5264   86.7325    7.9042 C.3     1  UNL1        0.0230
     34 C          59.7734   88.1823    8.1994 C.3     1  UNL1        0.0898
@<TRIPOS>BOND
     1    33    34    1
     2    34    29    1
     3    29    30   am
     4    30    31    2
     5    30     1    1
     6     1     2   ar
     7     2     3   ar
     8     3     4   ar
     9     4    13    1
    10    13    14   ar
    11    14    15   ar
    12    15    21    1
    13    21    22    1
    14    22    23    1
    15    23    24    1
    16    24    25    1
    17    25    26    1
    18    24    27    1
    19    27    28    1
    20    15    16   ar
    21    16    17    1
    22    16    18   ar
    23    18    19   ar
    24    19    20    1
    25     4     5   ar
    26     5     6   ar
    27     6     7    1
    28     6     8   ar
    29     8     9   ar
    30     9    10   ar
    31    10     1   ar
    32     9     3   ar
    33    19    13   ar
    34    29    32    1
    35     7    11    1
    36     7    12    1
@<TRIPOS>MOLECULE
*****
 34 36 0 0 0
SMALL
GASTEIGER

@<TRIPOS>ATOM
      1 C          65.5802   92.5055   11.2875 C.ar    1  UNL1        0.0842
      2 C          64.5810   91.4107   11.0568 C.ar    1  UNL1        0.0146
      3 C          64.0692   90.9609   12.3931 C.ar    1  UNL1        0.0423
      4 C          63.0697   89.9132   12.7842 C.ar    1  UNL1        0.0870
      5 N          62.7529   89.6821   14.2321 N.ar    1  UNL1       -0.2139
      6 C          63.4358   90.4988   15.2888 C.ar    1  UNL1        0.2141
      7 N          63.1191   90.2678   16.7366 N.pl3   1  UNL1       -0.3274
      8 N          64.4354   91.5466   14.8976 N.ar    1  UNL1       -0.2074
      9 C          64.7521   91.7776   13.4498 C.ar    1  UNL1        0.1151
     10 S          65.6859   92.7322   12.7665 S.2     1  UNL1       -0.0633
     11 H          62.4630   89.5801   16.9934 H       1  UNL1        0.1452
     12 H          63.5673   90.8038   17.4302 H       1  UNL1        0.1452
     13 C          62.3868   89.0964   11.7275 C.ar    1  UNL1        0.0314
     14 C          62.7632   87.6577   11.5315 C.ar    1  UNL1        0.0401
     15 C          62.0804   86.8410   10.4748 C.ar    1  UNL1        0.1492
     16 C          61.0211   87.4630    9.6140 C.ar    1  UNL1        0.0924
     17 CL         60.3382   86.6462    8.5573 Cl      1  UNL1       -0.0791
     18 C          60.6446   88.9017    9.8099 C.ar    1  UNL1        0.0259
     19 C          61.3275   89.7185   10.8666 C.ar    1  UNL1        0.0601
     20 CL         60.9510   91.1571   11.0626 Cl      1  UNL1       -0.0822
     21 O          62.4569   85.4023   10.2789 O.3     1  UNL1       -0.4731
     22 C          62.4944   84.4702   11.4536 C.3     1  UNL1        0.2227
     23 C          63.7737   83.7792   11.8221 C.3     1  UNL1        0.1200
     24 N          64.0211   83.3668   13.2429 N.3     1  UNL1       -0.2696
     25 C          64.7931   84.2669   14.1616 C.3     1  UNL1        0.0722
     26 C          64.2514   85.6201   14.5155 C.3     1  UNL1        0.0188
     27 C          63.4964   82.0544   13.7451 C.3     1  UNL1        0.0722
     28 C          62.1105   81.9682   14.3122 C.3     1  UNL1        0.0188
     29 N          65.8514   94.5775    9.7439 N.am    1  UNL1       -0.3005
     30 C          66.3402   93.2438   10.2258 C.2     1  UNL1        0.2519
     31 O          67.5888   92.6484    9.6460 O.2     1  UNL1       -0.2696
     32 H          65.0319   94.9683   10.1244 H       1  UNL1        0.1498
     33 C          67.3923   96.5464    9.0372 C.3     1  UNL1        0.0230
     34 C          66.6114   95.3158    8.6821 C.3     1  UNL1        0.0898
@<TRIPOS>BOND
     1    33    34    1
     2    34    29    1
     3    29    30   am
     4    30    31    2
     5    30     1    1
     6     1     2   ar
     7     2     3   ar
     8     3     4   ar
     9     4    13    1
    10    13    14   ar
    11    14    15   ar
    12    15    21    1
    13    21    22    1
    14    22    23    1
    15    23    24    1
    16    24    25    1
    17    25    26    1
    18    24    27    1
    19    27    28    1
    20    15    16   ar
    21    16    17    1
    22    16    18   ar
    23    18    19   ar
    24    19    20    1
    25     4     5   ar
    26     5     6   ar
    27     6     7    1
    28     6     8   ar
    29     8     9   ar
    30     9    10   ar
    31    10     1   ar
    32     9     3   ar
    33    19    13   ar
    34    29    32    1
    35     7    11    1
    36     7    12    1
@<TRIPOS>MOLECULE
*****
 34 36 0 0 0
SMALL
GASTEIGER

@<TRIPOS>ATOM
      1 C          64.1118   88.8804   13.9984 C.ar    1  UNL1        0.0842
      2 C          63.5430   88.0834   12.8621 C.ar    1  UNL1        0.0146
      3 C          63.5306   86.6397   13.2690 C.ar    1  UNL1        0.0423
      4 C          63.0809   85.3995   12.5551 C.ar    1  UNL1        0.0870
      5 N          63.1923   84.0640   13.2291 N.ar    1  UNL1       -0.2139
      6 C          63.7534   83.9688   14.6169 C.ar    1  UNL1        0.2141
      7 N          63.8648   82.6334   15.2909 N.pl3   1  UNL1       -0.3274
      8 N          64.2031   85.2091   15.3308 N.ar    1  UNL1       -0.2074
      9 C          64.0917   86.5445   14.6568 C.ar    1  UNL1        0.1151
     10 S          64.4509   87.9293   15.1076 S.2     1  UNL1       -0.0633
     11 H          63.5696   81.8194   14.8224 H       1  UNL1        0.1452
     12 H          64.2331   82.5709   16.2018 H       1  UNL1        0.1452
     13 C          62.5198   85.4947   11.1673 C.ar    1  UNL1        0.0314
     14 C          61.3429   86.3835   10.8935 C.ar    1  UNL1        0.0401
     15 C          60.7818   86.4787    9.5056 C.ar    1  UNL1        0.1492
     16 C          61.3975   85.6851    8.3916 C.ar    1  UNL1        0.0924
     17 CL         60.8364   85.7803    7.0038 Cl      1  UNL1       -0.0791
     18 C          62.5744   84.7962    8.6654 C.ar    1  UNL1        0.0259
     19 C          63.1356   84.7010   10.0533 C.ar    1  UNL1        0.0601
     20 CL         64.3124   83.8122   10.3271 Cl      1  UNL1       -0.0822
     21 O          59.6049   87.3676    9.2318 O.3     1  UNL1       -0.4731
     22 C          59.8190   88.7499    8.6904 C.3     1  UNL1        0.2227
     23 C          60.9782   89.5721    9.1702 C.3     1  UNL1        0.1200
     24 N          60.9090   90.2617   10.5005 N.3     1  UNL1       -0.2696
     25 C          59.6040   90.3446   11.2353 C.3     1  UNL1        0.0722
     26 C          59.3125   89.3914   12.3561 C.3     1  UNL1        0.0188
     27 C          62.1449   90.8682   11.0961 C.3     1  UNL1        0.0722
     28 C          63.2899   91.2601   10.2098 C.3     1  UNL1        0.0188
     29 N          65.3064   91.0070   13.1037 N.am    1  UNL1       -0.3005
     30 C          64.3071   90.3675   14.0214 C.2     1  UNL1        0.2519
     31 O          63.5031   91.2150   14.9622 O.2     1  UNL1       -0.2696
     32 H          65.8342   90.4507   12.4862 H       1  UNL1        0.1498
     33 C          66.5630   93.0976   13.9982 C.3     1  UNL1        0.0230
     34 C          65.5018   92.4940   13.1267 C.3     1  UNL1        0.0898
@<TRIPOS>BOND
     1    33    34    1
     2    34    29    1
     3    29    30   am
     4    30    31    2
     5    30     1    1
     6     1     2   ar
     7     2     3   ar
     8     3     4   ar
     9     4    13    1
    10    13    14   ar
    11    14    15   ar
    12    15    21    1
    13    21    22    1
    14    22    23    1
    15    23    24    1
    16    24    25    1
    17    25    26    1
    18    24    27    1
    19    27    28    1
    20    15    16   ar
    21    16    17    1
    22    16    18   ar
    23    18    19   ar
    24    19    20    1
    25     4     5   ar
    26     5     6   ar
    27     6     7    1
    28     6     8   ar
    29     8     9   ar
    30     9    10   ar
    31    10     1   ar
    32     9     3   ar
    33    19    13   ar
    34    29    32    1
    35     7    11    1
    36     7    12    1
@<TRIPOS>MOLECULE
*****
 34 36 0 0 0
SMALL
GASTEIGER

@<TRIPOS>ATOM
      1 C          63.2855   85.7469   12.6598 C.ar    1  UNL1        0.0842
      2 C          63.6906   87.1351   13.0582 C.ar    1  UNL1        0.0146
      3 C          62.8907   88.1044   12.2393 C.ar    1  UNL1        0.0423
      4 C          62.8651   89.6037   12.2004 C.ar    1  UNL1        0.0870
      5 N          61.9400   90.3138   11.2569 N.ar    1  UNL1       -0.2139
      6 C          61.0406   89.5247   10.3524 C.ar    1  UNL1        0.2141
      7 N          60.1155   90.2347    9.4090 N.pl3   1  UNL1       -0.3274
      8 N          61.0661   88.0253   10.3914 N.ar    1  UNL1       -0.2074
      9 C          61.9912   87.3153   11.3348 C.ar    1  UNL1        0.1151
     10 S          62.2352   85.8582   11.5947 S.2     1  UNL1       -0.0633
     11 H          60.0987   91.2187    9.3835 H       1  UNL1        0.1452
     12 H          59.5252   89.7167    8.8154 H       1  UNL1        0.1452
     13 C          63.7646   90.3929   13.1049 C.ar    1  UNL1        0.0314
     14 C          64.8414   91.2592   12.5219 C.ar    1  UNL1        0.0401
     15 C          65.7409   92.0484   13.4264 C.ar    1  UNL1        0.1492
     16 C          65.5636   91.9712   14.9139 C.ar    1  UNL1        0.0924
     17 CL         66.4631   92.7604   15.8184 Cl      1  UNL1       -0.0791
     18 C          64.4867   91.1049   15.4969 C.ar    1  UNL1        0.0259
     19 C          63.5872   90.3157   14.5924 C.ar    1  UNL1        0.0601
     20 CL         62.5104   89.4493   15.1753 Cl      1  UNL1       -0.0822
     21 O          66.8178   92.9147   12.8434 O.3     1  UNL1       -0.4731
     22 C          66.4672   94.2412   12.2372 C.3     1  UNL1        0.2227
     23 C          66.1193   94.3318   10.7810 C.3     1  UNL1        0.1200
     24 N          67.1072   94.9040    9.8080 N.3     1  UNL1       -0.2696
     25 C          68.1010   94.0060    9.1327 C.3     1  UNL1        0.0722
     26 C          68.1329   92.5425    9.4599 C.3     1  UNL1        0.0188
     27 C          67.1014   96.3741    9.5103 C.3     1  UNL1        0.0722
     28 C          67.2932   96.8551    8.1026 C.3     1  UNL1        0.0188
     29 N          63.1253   83.1733   12.9772 N.am    1  UNL1       -0.3005
     30 C          63.8343   84.4713   13.2270 C.2     1  UNL1        0.2519
     31 O          65.0921   84.4938   14.0439 O.2     1  UNL1       -0.2696
     32 H          62.2998   83.1585   12.4411 H       1  UNL1        0.1498
     33 C          62.9119   80.6159   13.3828 C.3     1  UNL1        0.0230
     34 C          63.6742   81.8977   13.5444 C.3     1  UNL1        0.0898
@<TRIPOS>BOND
     1    33    34    1
     2    34    29    1
     3    29    30   am
     4    30    31    2
     5    30     1    1
     6     1     2   ar
     7     2     3   ar
     8     3     4   ar
     9     4    13    1
    10    13    14   ar
    11    14    15   ar
    12    15    21    1
    13    21    22    1
    14    22    23    1
    15    23    24    1
    16    24    25    1
    17    25    26    1
    18    24    27    1
    19    27    28    1
    20    15    16   ar
    21    16    17    1
    22    16    18   ar
    23    18    19   ar
    24    19    20    1
    25     4     5   ar
    26     5     6   ar
    27     6     7    1
    28     6     8   ar
    29     8     9   ar
    30     9    10   ar
    31    10     1   ar
    32     9     3   ar
    33    19    13   ar
    34    29    32    1
    35     7    11    1
    36     7    12    1
@<TRIPOS>MOLECULE
*****
 34 36 0 0 0
SMALL
GASTEIGER

@<TRIPOS>ATOM
      1 C          62.0928   89.1829   10.4092 C.ar    1  UNL1        0.0842
      2 C          62.4610   88.5169   11.7018 C.ar    1  UNL1        0.0146
      3 C          63.3801   89.4353   12.4512 C.ar    1  UNL1        0.0423
      4 C          64.0608   89.3077   13.7817 C.ar    1  UNL1        0.0870
      5 N          64.9415   90.4137   14.2829 N.ar    1  UNL1       -0.2139
      6 C          65.1414   91.6475   13.4534 C.ar    1  UNL1        0.2141
      7 N          66.0220   92.7535   13.9545 N.pl3   1  UNL1       -0.3274
      8 N          64.4606   91.7751   12.1229 N.ar    1  UNL1       -0.2074
      9 C          63.5800   90.6691   11.6218 C.ar    1  UNL1        0.1151
     10 S          62.7844   90.5131   10.3598 S.2     1  UNL1       -0.0633
     11 H          66.4688   92.6697   14.8278 H       1  UNL1        0.1452
     12 H          66.1532   93.5633   13.4101 H       1  UNL1        0.1452
     13 C          63.8609   88.0739   14.6111 C.ar    1  UNL1        0.0314
     14 C          64.1194   86.7210   14.0173 C.ar    1  UNL1        0.0401
     15 C          63.9195   85.4872   14.8467 C.ar    1  UNL1        0.1492
     16 C          63.4611   85.6064   16.2700 C.ar    1  UNL1        0.0924
     17 CL         63.2612   84.3727   17.0994 Cl      1  UNL1       -0.0791
     18 C          63.2026   86.9595   16.8639 C.ar    1  UNL1        0.0259
     19 C          63.4025   88.1932   16.0344 C.ar    1  UNL1        0.0601
     20 CL         63.1440   89.5461   16.6283 Cl      1  UNL1       -0.0822
     21 O          64.1780   84.1342   14.2529 O.3     1  UNL1       -0.4731
     22 C          63.0546   83.1505   14.1107 C.3     1  UNL1        0.2227
     23 C          63.3241   81.7774   13.5703 C.3     1  UNL1        0.1200
     24 N          63.1963   81.5119   12.0995 N.3     1  UNL1       -0.2696
     25 C          62.9874   80.1110   11.6057 C.3     1  UNL1        0.0722
     26 C          62.9465   79.8336   10.1322 C.3     1  UNL1        0.0188
     27 C          63.2776   82.6472   11.1226 C.3     1  UNL1        0.0722
     28 C          64.6153   83.1636   10.6824 C.3     1  UNL1        0.0188
     29 N          60.2165   89.5104    8.6423 N.am    1  UNL1       -0.3005
     30 C          61.1913   88.6181    9.3517 C.2     1  UNL1        0.2519
     31 O          61.2648   87.1609    9.0036 O.2     1  UNL1       -0.2696
     32 H          60.1683   90.4668    8.8707 H       1  UNL1        0.1498
     33 C          58.9662   89.7673    6.3793 C.3     1  UNL1        0.0230
     34 C          59.3150   88.9455    7.5848 C.3     1  UNL1        0.0898
@<TRIPOS>BOND
     1    33    34    1
     2    34    29    1
     3    29    30   am
     4    30    31    2
     5    30     1    1
     6     1     2   ar
     7     2     3   ar
     8     3     4   ar
     9     4    13    1
    10    13    14   ar
    11    14    15   ar
    12    15    21    1
    13    21    22    1
    14    22    23    1
    15    23    24    1
    16    24    25    1
    17    25    26    1
    18    24    27    1
    19    27    28    1
    20    15    16   ar
    21    16    17    1
    22    16    18   ar
    23    18    19   ar
    24    19    20    1
    25     4     5   ar
    26     5     6   ar
    27     6     7    1
    28     6     8   ar
    29     8     9   ar
    30     9    10   ar
    31    10     1   ar
    32     9     3   ar
    33    19    13   ar
    34    29    32    1
    35     7    11    1
    36     7    12    1
