@<TRIPOS>MOLECULE
*****
 32 35 0 0 0
SMALL
GASTEIGER

@<TRIPOS>ATOM
      1 C          60.3273   89.0260    8.7904 C.3     1  UNL1        0.0026
      2 C          59.3659   89.2654    7.6642 C.3     1  UNL1        0.0026
      3 C          59.7382   87.8637    8.0475 C.3     1  UNL1        0.0297
      4 N          63.0132   90.6246   12.0278 N.pl3   1  UNL1       -0.2782
      5 C          63.3701   90.8336   10.5860 C.3     1  UNL1        0.0936
      6 C          62.4748   90.3007    9.5068 C.3     1  UNL1        0.0216
      7 C          61.2226   89.5589    9.8695 C.3     1  UNL1        0.0035
      8 C          60.8657   89.3499   11.3113 C.3     1  UNL1        0.0216
      9 C          61.7610   89.8828   12.3905 C.3     1  UNL1        0.0936
     10 C          65.6990   92.2232   15.2652 C.ar    1  UNL1        0.0457
     11 C          66.0217   92.4876   13.8244 C.ar    1  UNL1        0.1015
     12 N          65.1264   91.9547   12.7453 N.ar    1  UNL1       -0.2123
     13 C          63.9084   91.1575   13.1069 C.ar    1  UNL1        0.2202
     14 N          63.5857   90.8931   14.5477 N.ar    1  UNL1       -0.2123
     15 C          64.4810   91.4260   15.6268 C.ar    1  UNL1        0.1015
     16 C          66.5942   92.7561   16.3443 C.3     1  UNL1        0.1718
     17 C          69.0670   93.2819   15.7452 C.3     1  UNL1        0.1746
     18 O          68.0456   92.3780   16.3695 O.3     1  UNL1       -0.3462
     19 C          59.6129   86.3835    7.8398 C.3     1  UNL1        0.1425
     20 O          60.8421   85.5479    7.6370 O.3     1  UNL1       -0.3489
     21 C          62.1256   85.9250    8.3154 C.3     1  UNL1        0.1708
     22 C          62.4247   85.4122    9.6930 C.ar    1  UNL1        0.0348
     23 C          61.8227   86.0852   10.8908 C.ar    1  UNL1        0.0017
     24 C          62.1217   85.5725   12.2684 C.ar    1  UNL1        0.0182
     25 C          63.0227   84.3868   12.4481 C.ar    1  UNL1        0.1079
     26 C          63.6248   83.7139   11.2503 C.ar    1  UNL1        0.0477
     27 C          63.3257   84.2266    9.8728 C.ar    1  UNL1        0.1398
     28 F          63.9278   83.5537    8.6749 F       1  UNL1       -0.2044
     29 S          63.3218   83.8740   13.8257 S.O2    1  UNL1        0.0105
     30 C          63.6208   83.3613   15.2032 C.3     1  UNL1        0.1816
     31 O          64.3324   82.9249   13.2530 O.2     1  UNL1       -0.1686
     32 O          62.3112   84.8231   14.3983 O.2     1  UNL1       -0.1686
@<TRIPOS>BOND
     1    17    18    1
     2    18    16    1
     3    16    10    1
     4    10    11   ar
     5    11    12   ar
     6    12    13   ar
     7    13     4    1
     8     4     5    1
     9     5     6    1
    10     6     7    1
    11     1     7    1
    12     1     2    1
    13     2     3    1
    14     3    19    1
    15    19    20    1
    16    20    21    1
    17    21    22    1
    18    22    23   ar
    19    23    24   ar
    20    24    25   ar
    21    25    29    1
    22    29    30    1
    23    29    31    2
    24    29    32    2
    25    25    26   ar
    26    26    27   ar
    27    27    28    1
    28     7     8    1
    29     8     9    1
    30    13    14   ar
    31    14    15   ar
    32    15    10   ar
    33     9     4    1
    34     3     1    1
    35    27    22   ar
@<TRIPOS>MOLECULE
*****
 32 35 0 0 0
SMALL
GASTEIGER

@<TRIPOS>ATOM
      1 C          60.5835   89.0977    8.9364 C.3     1  UNL1        0.0026
      2 C          59.5228   89.3168    7.8987 C.3     1  UNL1        0.0026
      3 C          60.0428   87.9342    8.1595 C.3     1  UNL1        0.0297
      4 N          63.3573   90.7338   12.0795 N.pl3   1  UNL1       -0.2782
      5 C          62.3511   89.6819   12.4413 C.3     1  UNL1        0.0936
      6 C          61.4265   89.1366   11.3936 C.3     1  UNL1        0.0216
      7 C          61.5081   89.6431    9.9841 C.3     1  UNL1        0.0035
      8 C          62.5143   90.6950    9.6223 C.3     1  UNL1        0.0216
      9 C          63.4390   91.2404   10.6700 C.3     1  UNL1        0.0936
     10 C          66.1312   92.3699   15.2226 C.ar    1  UNL1        0.0457
     11 C          66.4586   92.5440   13.7692 C.ar    1  UNL1        0.1015
     12 N          65.5340   91.9986   12.7215 N.ar    1  UNL1       -0.2123
     13 C          64.2819   91.2792   13.1272 C.ar    1  UNL1        0.2202
     14 N          63.9545   91.1051   14.5806 N.ar    1  UNL1       -0.2123
     15 C          64.8791   91.6505   15.6283 C.ar    1  UNL1        0.1015
     16 C          67.0558   92.9153   16.2703 C.3     1  UNL1        0.1718
     17 C          69.2913   94.1901   15.9135 C.3     1  UNL1        0.1746
     18 O          68.5385   92.8992   16.0440 O.3     1  UNL1       -0.3462
     19 C          60.0308   86.4641    7.8615 C.3     1  UNL1        0.1425
     20 O          61.3182   85.7429    7.5922 O.3     1  UNL1       -0.3489
     21 C          62.4966   85.9485    8.4972 C.3     1  UNL1        0.1708
     22 C          62.7850   84.9613    9.5891 C.ar    1  UNL1        0.0348
     23 C          63.7868   83.8674    9.3657 C.ar    1  UNL1        0.0017
     24 C          64.0753   82.8802   10.4575 C.ar    1  UNL1        0.0182
     25 C          63.3620   82.9868   11.7727 C.ar    1  UNL1        0.1079
     26 C          62.3602   84.0806   11.9961 C.ar    1  UNL1        0.0477
     27 C          62.0717   85.0678   10.9043 C.ar    1  UNL1        0.1398
     28 F          61.0699   86.1617   11.1277 F       1  UNL1       -0.2044
     29 S          63.6505   81.9995   12.8646 S.O2    1  UNL1        0.0105
     30 C          63.9389   81.0123   13.9564 C.3     1  UNL1        0.1816
     31 O          62.9184   80.9379   12.0982 O.2     1  UNL1       -0.1686
     32 O          64.3825   83.0610   13.6309 O.2     1  UNL1       -0.1686
@<TRIPOS>BOND
     1    17    18    1
     2    18    16    1
     3    16    10    1
     4    10    11   ar
     5    11    12   ar
     6    12    13   ar
     7    13     4    1
     8     4     5    1
     9     5     6    1
    10     6     7    1
    11     1     7    1
    12     1     2    1
    13     2     3    1
    14     3    19    1
    15    19    20    1
    16    20    21    1
    17    21    22    1
    18    22    23   ar
    19    23    24   ar
    20    24    25   ar
    21    25    29    1
    22    29    30    1
    23    29    31    2
    24    29    32    2
    25    25    26   ar
    26    26    27   ar
    27    27    28    1
    28     7     8    1
    29     8     9    1
    30    13    14   ar
    31    14    15   ar
    32    15    10   ar
    33     9     4    1
    34     3     1    1
    35    27    22   ar
@<TRIPOS>MOLECULE
*****
 32 35 0 0 0
SMALL
GASTEIGER

@<TRIPOS>ATOM
      1 C          63.1021   87.1845   16.7148 C.3     1  UNL1        0.0026
      2 C          62.6912   86.5973   18.0324 C.3     1  UNL1        0.0026
      3 C          62.6501   85.7563   16.7910 C.3     1  UNL1        0.0297
      4 N          64.5969   90.6754   14.3003 N.pl3   1  UNL1       -0.2782
      5 C          64.7652   89.2779   13.7819 C.3     1  UNL1        0.0936
      6 C          64.2669   88.1143   14.5867 C.3     1  UNL1        0.0216
      7 C          63.6004   88.3481   15.9099 C.3     1  UNL1        0.0035
      8 C          63.4321   89.7456   16.4284 C.3     1  UNL1        0.0216
      9 C          63.9304   90.9092   15.6236 C.3     1  UNL1        0.0936
     10 C          66.0917   94.1662   11.8859 C.ar    1  UNL1        0.0457
     11 C          65.3038   93.0769   11.2208 C.ar    1  UNL1        0.1015
     12 N          64.8055   91.9132   12.0257 N.ar    1  UNL1       -0.2123
     13 C          65.0952   91.8390   13.4955 C.ar    1  UNL1        0.2202
     14 N          65.8832   92.9284   14.1605 N.ar    1  UNL1       -0.2123
     15 C          66.3814   94.0920   13.3557 C.ar    1  UNL1        0.1015
     16 C          66.5900   95.3298   11.0811 C.3     1  UNL1        0.1718
     17 C          67.3029   94.8070    8.6380 C.3     1  UNL1        0.1746
     18 O          67.6675   95.1273   10.0574 O.3     1  UNL1       -0.3462
     19 C          62.3653   84.4463   16.1184 C.3     1  UNL1        0.1425
     20 O          63.4905   83.6386   15.5425 O.3     1  UNL1       -0.3489
     21 C          64.3533   84.2186   14.4613 C.3     1  UNL1        0.1708
     22 C          63.7617   84.5393   13.1207 C.ar    1  UNL1        0.0348
     23 C          62.9891   85.8103   12.9265 C.ar    1  UNL1        0.0017
     24 C          62.3975   86.1311   11.5860 C.ar    1  UNL1        0.0182
     25 C          62.5785   85.1808   10.4396 C.ar    1  UNL1        0.1079
     26 C          63.3511   83.9098   10.6338 C.ar    1  UNL1        0.0477
     27 C          63.9427   83.5891   11.9743 C.ar    1  UNL1        0.1398
     28 F          64.7153   82.3181   12.1685 F       1  UNL1       -0.2044
     29 S          61.9868   85.5015    9.0990 S.O2    1  UNL1        0.0105
     30 C          61.3952   85.8222    7.7585 C.3     1  UNL1        0.1816
     31 O          63.1540   84.8420    8.4261 O.2     1  UNL1       -0.1686
     32 O          60.8197   86.1610    9.7719 O.2     1  UNL1       -0.1686
@<TRIPOS>BOND
     1    17    18    1
     2    18    16    1
     3    16    10    1
     4    10    11   ar
     5    11    12   ar
     6    12    13   ar
     7    13     4    1
     8     4     5    1
     9     5     6    1
    10     6     7    1
    11     1     7    1
    12     1     2    1
    13     2     3    1
    14     3    19    1
    15    19    20    1
    16    20    21    1
    17    21    22    1
    18    22    23   ar
    19    23    24   ar
    20    24    25   ar
    21    25    29    1
    22    29    30    1
    23    29    31    2
    24    29    32    2
    25    25    26   ar
    26    26    27   ar
    27    27    28    1
    28     7     8    1
    29     8     9    1
    30    13    14   ar
    31    14    15   ar
    32    15    10   ar
    33     9     4    1
    34     3     1    1
    35    27    22   ar
@<TRIPOS>MOLECULE
*****
 32 35 0 0 0
SMALL
GASTEIGER

@<TRIPOS>ATOM
      1 C          64.0947   88.6166   14.9553 C.3     1  UNL1        0.0026
      2 C          63.4982   88.0817   16.2234 C.3     1  UNL1        0.0026
      3 C          63.8883   87.1404   15.1225 C.3     1  UNL1        0.0297
      4 N          65.4855   92.1003   12.4694 N.pl3   1  UNL1       -0.2782
      5 C          64.2857   91.3070   12.0440 C.3     1  UNL1        0.0936
      6 C          63.8221   90.1457   12.8727 C.3     1  UNL1        0.0216
      7 C          64.5583   89.7778   14.1267 C.3     1  UNL1        0.0035
      8 C          65.7582   90.5712   14.5520 C.3     1  UNL1        0.0216
      9 C          66.2218   91.7324   13.7234 C.3     1  UNL1        0.0936
     10 C          66.8763   95.5839    9.9835 C.ar    1  UNL1        0.0457
     11 C          67.0189   94.1852    9.4608 C.ar    1  UNL1        0.1015
     12 N          66.5553   93.0240   10.2894 N.ar    1  UNL1       -0.2123
     13 C          65.9491   93.2615   11.6408 C.ar    1  UNL1        0.2202
     14 N          65.8066   94.6602   12.1634 N.ar    1  UNL1       -0.2123
     15 C          66.2702   95.8214   11.3348 C.ar    1  UNL1        0.1015
     16 C          67.3399   96.7451    9.1548 C.3     1  UNL1        0.1718
     17 C          65.4721   96.7651    7.3491 C.3     1  UNL1        0.1746
     18 O          66.9232   96.8551    7.7181 O.3     1  UNL1       -0.3462
     19 C          63.9942   85.7446   14.5835 C.3     1  UNL1        0.1425
     20 O          62.9494   85.2228   13.6421 O.3     1  UNL1       -0.3489
     21 C          63.2523   85.1017   12.1780 C.3     1  UNL1        0.1708
     22 C          62.3824   85.7958   11.1722 C.ar    1  UNL1        0.0348
     23 C          61.3553   86.7895   11.6278 C.ar    1  UNL1        0.0017
     24 C          60.4854   87.4836   10.6221 C.ar    1  UNL1        0.0182
     25 C          60.6426   87.1840    9.1608 C.ar    1  UNL1        0.1079
     26 C          61.6697   86.1902    8.7052 C.ar    1  UNL1        0.0477
     27 C          62.5396   85.4962    9.7109 C.ar    1  UNL1        0.1398
     28 F          63.5667   84.5025    9.2553 F       1  UNL1       -0.2044
     29 S          59.7727   87.8780    8.1549 S.O2    1  UNL1        0.0105
     30 C          58.9028   88.5721    7.1492 C.3     1  UNL1        0.1816
     31 O          59.4065   86.5521    7.5567 O.2     1  UNL1       -0.1686
     32 O          60.1389   89.2039    8.7532 O.2     1  UNL1       -0.1686
@<TRIPOS>BOND
     1    17    18    1
     2    18    16    1
     3    16    10    1
     4    10    11   ar
     5    11    12   ar
     6    12    13   ar
     7    13     4    1
     8     4     5    1
     9     5     6    1
    10     6     7    1
    11     1     7    1
    12     1     2    1
    13     2     3    1
    14     3    19    1
    15    19    20    1
    16    20    21    1
    17    21    22    1
    18    22    23   ar
    19    23    24   ar
    20    24    25   ar
    21    25    29    1
    22    29    30    1
    23    29    31    2
    24    29    32    2
    25    25    26   ar
    26    26    27   ar
    27    27    28    1
    28     7     8    1
    29     8     9    1
    30    13    14   ar
    31    14    15   ar
    32    15    10   ar
    33     9     4    1
    34     3     1    1
    35    27    22   ar
@<TRIPOS>MOLECULE
*****
 32 35 0 0 0
SMALL
GASTEIGER

@<TRIPOS>ATOM
      1 C          65.2112   91.3777   15.0264 C.3     1  UNL1        0.0026
      2 C          65.2353   92.1760   16.2961 C.3     1  UNL1        0.0026
      3 C          66.5084   91.9252   15.5435 C.3     1  UNL1        0.0297
      4 N          62.9226   89.0465   11.9316 N.pl3   1  UNL1       -0.2782
      5 C          63.5327   88.3381   13.1045 C.3     1  UNL1        0.0936
      6 C          64.2956   89.1151   14.1361 C.3     1  UNL1        0.0216
      7 C          64.4483   90.6006   13.9948 C.3     1  UNL1        0.0035
      8 C          63.8382   91.3090   12.8218 C.3     1  UNL1        0.0216
      9 C          63.0754   90.5319   11.7902 C.3     1  UNL1        0.0936
     10 C          60.6340   86.7153    8.8368 C.ar    1  UNL1        0.0457
     11 C          60.5837   88.2144    8.8353 C.ar    1  UNL1        0.1015
     12 N          61.3466   88.9915    9.8669 N.ar    1  UNL1       -0.2123
     13 C          62.1597   88.2694   10.9000 C.ar    1  UNL1        0.2202
     14 N          62.2100   86.7703   10.9015 N.ar    1  UNL1       -0.2123
     15 C          61.4472   85.9932    9.8699 C.ar    1  UNL1        0.1015
     16 C          59.8711   85.9382    7.8052 C.3     1  UNL1        0.1718
     17 C          61.8634   84.6979    6.6906 C.3     1  UNL1        0.1746
     18 O          60.5675   85.4439    6.5720 O.3     1  UNL1       -0.3462
     19 C          67.9923   92.0966   15.4075 C.3     1  UNL1        0.1425
     20 O          68.6023   92.3052   14.0531 O.3     1  UNL1       -0.3489
     21 C          67.8728   91.8505   12.8239 C.3     1  UNL1        0.1708
     22 C          67.4471   92.8515   11.7909 C.ar    1  UNL1        0.0348
     23 C          67.8370   92.6596   10.3553 C.ar    1  UNL1        0.0017
     24 C          67.4114   93.6605    9.3223 C.ar    1  UNL1        0.0182
     25 C          66.5959   94.8533    9.7251 C.ar    1  UNL1        0.1079
     26 C          66.2060   95.0452   11.1608 C.ar    1  UNL1        0.0477
     27 C          66.6316   94.0442   12.1937 C.ar    1  UNL1        0.1398
     28 F          66.2417   94.2361   13.6294 F       1  UNL1       -0.2044
     29 S          66.1703   95.8543    8.6921 S.O2    1  UNL1        0.0105
     30 C          65.7446   96.8553    7.6592 C.3     1  UNL1        0.1816
     31 O          66.9511   95.1104    7.6495 O.2     1  UNL1       -0.1686
     32 O          65.3896   96.5981    9.7347 O.2     1  UNL1       -0.1686
@<TRIPOS>BOND
     1    17    18    1
     2    18    16    1
     3    16    10    1
     4    10    11   ar
     5    11    12   ar
     6    12    13   ar
     7    13     4    1
     8     4     5    1
     9     5     6    1
    10     6     7    1
    11     1     7    1
    12     1     2    1
    13     2     3    1
    14     3    19    1
    15    19    20    1
    16    20    21    1
    17    21    22    1
    18    22    23   ar
    19    23    24   ar
    20    24    25   ar
    21    25    29    1
    22    29    30    1
    23    29    31    2
    24    29    32    2
    25    25    26   ar
    26    26    27   ar
    27    27    28    1
    28     7     8    1
    29     8     9    1
    30    13    14   ar
    31    14    15   ar
    32    15    10   ar
    33     9     4    1
    34     3     1    1
    35    27    22   ar
@<TRIPOS>MOLECULE
*****
 32 35 0 0 0
SMALL
GASTEIGER

@<TRIPOS>ATOM
      1 C          63.0479   87.0450   16.8513 C.3     1  UNL1        0.0026
      2 C          62.9972   87.4953   18.2811 C.3     1  UNL1        0.0026
      3 C          63.0845   88.5084   17.1784 C.3     1  UNL1        0.0297
      4 N          63.0723   83.7303   13.8079 N.pl3   1  UNL1       -0.2782
      5 C          62.2123   83.6185   15.0318 C.3     1  UNL1        0.0936
      6 C          62.2042   84.7234   16.0462 C.3     1  UNL1        0.0216
      7 C          63.0560   85.9401   15.8368 C.3     1  UNL1        0.0035
      8 C          63.9160   86.0520   14.6129 C.3     1  UNL1        0.0216
      9 C          63.9241   84.9471   13.5984 C.3     1  UNL1        0.0936
     10 C          63.0967   80.4157   10.7645 C.ar    1  UNL1        0.0457
     11 C          63.4996   81.8040   10.3645 C.ar    1  UNL1        0.1015
     12 N          63.4915   82.9089   11.3790 N.ar    1  UNL1       -0.2123
     13 C          63.0804   82.6255   12.7934 C.ar    1  UNL1        0.2202
     14 N          62.6774   81.2371   13.1933 N.ar    1  UNL1       -0.2123
     15 C          62.6855   80.1322   12.1789 C.ar    1  UNL1        0.1015
     16 C          63.1048   79.3108    9.7500 C.3     1  UNL1        0.1718
     17 C          63.2433   76.7954   10.3855 C.3     1  UNL1        0.1746
     18 O          62.4255   78.0084   10.0540 O.3     1  UNL1       -0.3462
     19 C          63.1562   89.9382   16.7307 C.3     1  UNL1        0.1425
     20 O          63.1673   90.2662   15.2670 O.3     1  UNL1       -0.3489
     21 C          64.3449   89.8817   14.4212 C.3     1  UNL1        0.1708
     22 C          64.9262   90.8680   13.4520 C.ar    1  UNL1        0.0348
     23 C          64.2079   91.1732   12.1710 C.ar    1  UNL1        0.0017
     24 C          64.7892   92.1595   11.2018 C.ar    1  UNL1        0.0182
     25 C          66.0887   92.8406   11.5136 C.ar    1  UNL1        0.1079
     26 C          66.8069   92.5354   12.7947 C.ar    1  UNL1        0.0477
     27 C          66.2257   91.5491   13.7638 C.ar    1  UNL1        0.1398
     28 F          66.9439   91.2440   15.0448 F       1  UNL1       -0.2044
     29 S          66.6700   93.8269   10.5445 S.O2    1  UNL1        0.0105
     30 C          67.2513   94.8133    9.5753 C.3     1  UNL1        0.1816
     31 O          67.8915   92.9678   10.4028 O.2     1  UNL1       -0.1686
     32 O          65.4486   94.6859   10.6861 O.2     1  UNL1       -0.1686
@<TRIPOS>BOND
     1    17    18    1
     2    18    16    1
     3    16    10    1
     4    10    11   ar
     5    11    12   ar
     6    12    13   ar
     7    13     4    1
     8     4     5    1
     9     5     6    1
    10     6     7    1
    11     1     7    1
    12     1     2    1
    13     2     3    1
    14     3    19    1
    15    19    20    1
    16    20    21    1
    17    21    22    1
    18    22    23   ar
    19    23    24   ar
    20    24    25   ar
    21    25    29    1
    22    29    30    1
    23    29    31    2
    24    29    32    2
    25    25    26   ar
    26    26    27   ar
    27    27    28    1
    28     7     8    1
    29     8     9    1
    30    13    14   ar
    31    14    15   ar
    32    15    10   ar
    33     9     4    1
    34     3     1    1
    35    27    22   ar
@<TRIPOS>MOLECULE
*****
 32 35 0 0 0
SMALL
GASTEIGER

@<TRIPOS>ATOM
      1 C          59.4263   89.3425    6.8963 C.3     1  UNL1        0.0026
      2 C          58.9607   88.0140    7.4141 C.3     1  UNL1        0.0026
      3 C          59.7660   88.9220    8.2955 C.3     1  UNL1        0.0297
      4 N          59.6443   92.3721    3.5761 N.pl3   1  UNL1       -0.2782
      5 C          60.8956   91.7070    4.0678 C.3     1  UNL1        0.0936
      6 C          60.8229   90.6971    5.1746 C.3     1  UNL1        0.0216
      7 C          59.4990   90.3524    5.7896 C.3     1  UNL1        0.0035
      8 C          58.2477   91.0176    5.2979 C.3     1  UNL1        0.0216
      9 C          58.3204   92.0275    4.1912 C.3     1  UNL1        0.0936
     10 C          59.8623   95.4018    0.2559 C.ar    1  UNL1        0.0457
     11 C          59.4638   93.9873   -0.0445 C.ar    1  UNL1        0.1015
     12 N          59.3911   92.9774    1.0623 N.ar    1  UNL1       -0.2123
     13 C          59.7170   93.3820    2.4694 C.ar    1  UNL1        0.2202
     14 N          60.1155   94.7965    2.7697 N.ar    1  UNL1       -0.2123
     15 C          60.1882   95.8064    1.6630 C.ar    1  UNL1        0.1015
     16 C          59.9350   96.4116   -0.8509 C.3     1  UNL1        0.1718
     17 C          61.9228   95.4280   -2.2041 C.3     1  UNL1        0.1746
     18 O          60.5539   96.0401   -2.1657 O.3     1  UNL1       -0.3462
     19 C          60.4270   89.2034    9.6122 C.3     1  UNL1        0.1425
     20 O          61.7127   88.5173    9.9678 O.3     1  UNL1       -0.3489
     21 C          62.0898   87.2332    9.2905 C.3     1  UNL1        0.1708
     22 C          62.4600   86.0331   10.1108 C.ar    1  UNL1        0.0348
     23 C          62.2081   86.0286   11.5894 C.ar    1  UNL1        0.0017
     24 C          62.5783   84.8286   12.4097 C.ar    1  UNL1        0.0182
     25 C          63.2004   83.6330   11.7513 C.ar    1  UNL1        0.1079
     26 C          63.4523   83.6375   10.2726 C.ar    1  UNL1        0.0477
     27 C          63.0821   84.8375    9.4523 C.ar    1  UNL1        0.1398
     28 F          63.3340   84.8419    7.9736 F       1  UNL1       -0.2044
     29 S          63.5706   82.4329   12.5716 S.O2    1  UNL1        0.0105
     30 C          63.9407   81.2329   13.3918 C.3     1  UNL1        0.1816
     31 O          64.7410   82.1770   11.6689 O.2     1  UNL1       -0.1686
     32 O          62.4002   82.6889   13.4742 O.2     1  UNL1       -0.1686
@<TRIPOS>BOND
     1    17    18    1
     2    18    16    1
     3    16    10    1
     4    10    11   ar
     5    11    12   ar
     6    12    13   ar
     7    13     4    1
     8     4     5    1
     9     5     6    1
    10     6     7    1
    11     1     7    1
    12     1     2    1
    13     2     3    1
    14     3    19    1
    15    19    20    1
    16    20    21    1
    17    21    22    1
    18    22    23   ar
    19    23    24   ar
    20    24    25   ar
    21    25    29    1
    22    29    30    1
    23    29    31    2
    24    29    32    2
    25    25    26   ar
    26    26    27   ar
    27    27    28    1
    28     7     8    1
    29     8     9    1
    30    13    14   ar
    31    14    15   ar
    32    15    10   ar
    33     9     4    1
    34     3     1    1
    35    27    22   ar
@<TRIPOS>MOLECULE
*****
 32 35 0 0 0
SMALL
GASTEIGER

@<TRIPOS>ATOM
      1 C          59.5529   89.3647    6.9388 C.3     1  UNL1        0.0026
      2 C          59.1821   88.0071    7.4579 C.3     1  UNL1        0.0026
      3 C          59.8573   88.9965    8.3607 C.3     1  UNL1        0.0297
      4 N          59.6679   92.3537    3.5769 N.pl3   1  UNL1       -0.2782
      5 C          60.9317   91.6838    4.0284 C.3     1  UNL1        0.0936
      6 C          60.8934   90.6874    5.1490 C.3     1  UNL1        0.0216
      7 C          59.5912   90.3610    5.8182 C.3     1  UNL1        0.0035
      8 C          58.3274   91.0310    5.3667 C.3     1  UNL1        0.0216
      9 C          58.3657   92.0273    4.2461 C.3     1  UNL1        0.0936
     10 C          59.7828   95.3428    0.2150 C.ar    1  UNL1        0.0457
     11 C          59.3412   93.9338   -0.0489 C.ar    1  UNL1        0.1015
     12 N          59.3029   92.9375    1.0717 N.ar    1  UNL1       -0.2123
     13 C          59.7062   93.3501    2.4563 C.ar    1  UNL1        0.2202
     14 N          60.1478   94.7591    2.7202 N.ar    1  UNL1       -0.2123
     15 C          60.1861   95.7554    1.5996 C.ar    1  UNL1        0.1015
     16 C          59.8211   96.3392   -0.9056 C.3     1  UNL1        0.1718
     17 C          59.9493   95.3760   -3.3151 C.3     1  UNL1        0.1746
     18 O          60.6111   96.0430   -2.1458 O.3     1  UNL1       -0.3462
     19 C          60.4229   89.3552    9.7028 C.3     1  UNL1        0.1425
     20 O          61.8914   89.1963    9.9647 O.3     1  UNL1       -0.3489
     21 C          62.3629   88.6193   11.2665 C.3     1  UNL1        0.1708
     22 C          63.2393   89.4317   12.1733 C.ar    1  UNL1        0.0348
     23 C          63.7470   88.8389   13.4543 C.ar    1  UNL1        0.0017
     24 C          64.6233   89.6512   14.3610 C.ar    1  UNL1        0.0182
     25 C          64.9919   91.0562   13.9868 C.ar    1  UNL1        0.1079
     26 C          64.4842   91.6489   12.7059 C.ar    1  UNL1        0.0477
     27 C          63.6079   90.8367   11.7991 C.ar    1  UNL1        0.1398
     28 F          63.1001   91.4294   10.5181 F       1  UNL1       -0.2044
     29 S          65.8683   91.8685   14.8936 S.O2    1  UNL1        0.0105
     30 C          66.7446   92.6808   15.8004 C.3     1  UNL1        0.1816
     31 O          67.0329   91.6345   13.9776 O.2     1  UNL1       -0.1686
     32 O          64.7037   92.1025   15.8095 O.2     1  UNL1       -0.1686
@<TRIPOS>BOND
     1    17    18    1
     2    18    16    1
     3    16    10    1
     4    10    11   ar
     5    11    12   ar
     6    12    13   ar
     7    13     4    1
     8     4     5    1
     9     5     6    1
    10     6     7    1
    11     1     7    1
    12     1     2    1
    13     2     3    1
    14     3    19    1
    15    19    20    1
    16    20    21    1
    17    21    22    1
    18    22    23   ar
    19    23    24   ar
    20    24    25   ar
    21    25    29    1
    22    29    30    1
    23    29    31    2
    24    29    32    2
    25    25    26   ar
    26    26    27   ar
    27    27    28    1
    28     7     8    1
    29     8     9    1
    30    13    14   ar
    31    14    15   ar
    32    15    10   ar
    33     9     4    1
    34     3     1    1
    35    27    22   ar
@<TRIPOS>MOLECULE
*****
 32 35 0 0 0
SMALL
GASTEIGER

@<TRIPOS>ATOM
      1 C          59.0559   89.7248    6.5447 C.3     1  UNL1        0.0026
      2 C          57.7852   90.2722    5.9656 C.3     1  UNL1        0.0026
      3 C          59.1087   90.8239    5.5253 C.3     1  UNL1        0.0297
      4 N          61.1657   86.8731    9.3136 N.pl3   1  UNL1       -0.2782
      5 C          60.4040   86.3471    8.1333 C.3     1  UNL1        0.0936
      6 C          59.7008   87.2977    7.2104 C.3     1  UNL1        0.0216
      7 C          59.7592   88.7743    7.4677 C.3     1  UNL1        0.0035
      8 C          60.5209   89.3002    8.6480 C.3     1  UNL1        0.0216
      9 C          61.2242   88.3497    9.5709 C.3     1  UNL1        0.0936
     10 C          63.2755   84.0213   12.0824 C.ar    1  UNL1        0.0457
     11 C          62.4013   85.1033   12.6439 C.ar    1  UNL1        0.1015
     12 N          61.6981   86.0538   11.7209 N.ar    1  UNL1       -0.2123
     13 C          61.8690   85.9225   10.2365 C.ar    1  UNL1        0.2202
     14 N          62.7431   84.8406    9.6751 N.ar    1  UNL1       -0.2123
     15 C          63.4464   83.8900   10.5980 C.ar    1  UNL1        0.1015
     16 C          63.9787   83.0708   13.0054 C.3     1  UNL1        0.1718
     17 C          62.0281   81.4617   13.6019 C.3     1  UNL1        0.1746
     18 O          63.1962   82.3009   14.0276 O.3     1  UNL1       -0.3462
     19 C          59.9033   91.7769    4.6826 C.3     1  UNL1        0.1425
     20 O          59.2045   92.6787    3.7086 O.3     1  UNL1       -0.3489
     21 C          59.6826   92.7639    2.2894 C.3     1  UNL1        0.1708
     22 C          60.8949   93.5812    1.9541 C.ar    1  UNL1        0.0348
     23 C          60.7841   95.0722    1.8328 C.ar    1  UNL1        0.0017
     24 C          61.9964   95.8895    1.4975 C.ar    1  UNL1        0.0182
     25 C          63.3194   95.2159    1.2837 C.ar    1  UNL1        0.1079
     26 C          63.4301   93.7249    1.4051 C.ar    1  UNL1        0.0477
     27 C          62.2179   92.9076    1.7403 C.ar    1  UNL1        0.1398
     28 F          62.3287   91.4166    1.8617 F       1  UNL1       -0.2044
     29 S          64.5317   96.0332    0.9484 S.O2    1  UNL1        0.0105
     30 C          65.7440   96.8504    0.6132 C.3     1  UNL1        0.1816
     31 O          65.0153   95.8956    2.3618 O.2     1  UNL1       -0.1686
     32 O          64.0482   96.1707   -0.4648 O.2     1  UNL1       -0.1686
@<TRIPOS>BOND
     1    17    18    1
     2    18    16    1
     3    16    10    1
     4    10    11   ar
     5    11    12   ar
     6    12    13   ar
     7    13     4    1
     8     4     5    1
     9     5     6    1
    10     6     7    1
    11     1     7    1
    12     1     2    1
    13     2     3    1
    14     3    19    1
    15    19    20    1
    16    20    21    1
    17    21    22    1
    18    22    23   ar
    19    23    24   ar
    20    24    25   ar
    21    25    29    1
    22    29    30    1
    23    29    31    2
    24    29    32    2
    25    25    26   ar
    26    26    27   ar
    27    27    28    1
    28     7     8    1
    29     8     9    1
    30    13    14   ar
    31    14    15   ar
    32    15    10   ar
    33     9     4    1
    34     3     1    1
    35    27    22   ar
