@<TRIPOS>MOLECULE
*****
 25 26 0 0 0
SMALL
GASTEIGER

@<TRIPOS>ATOM
      1 C          61.2547   88.0891   10.5185 C.3     1  UNL1        0.0644
      2 N          60.0734   87.9751   11.4358 N.3     1  UNL1       -0.3215
      3 H          59.9731   88.8383   11.9699 H       1  UNL1        0.1188
      4 H          60.2142   87.1936   12.0760 H       1  UNL1        0.1188
      5 C          62.0716   89.3471   10.5004 C.3     1  UNL1        0.1011
      6 C          64.3751   91.5827   12.9119 C.3     1  UNL1        0.1700
      7 C          65.3429   92.6103   12.4045 C.3     1  UNL1        0.0726
      8 C          65.2668   92.6189   10.9064 C.3     1  UNL1        0.1834
      9 F          66.0653   93.4957    9.9880 F       1  UNL1       -0.2354
     10 C          64.2520   91.5966   10.4880 C.3     1  UNL1        0.1295
     11 N          63.7009   90.9562   11.7275 N.am    1  UNL1       -0.2656
     12 C          62.6586   89.8785   11.7743 C.2     1  UNL1        0.2278
     13 O          62.2034   89.3323   13.0951 O.2     1  UNL1       -0.2748
     14 N          63.8757   90.9005   15.7903 N.1     1  UNL1       -0.1942
     15 C          64.1254   91.2416   14.3511 C.1     1  UNL1        0.0926
     16 C          61.6191   86.9452    9.6193 C.3     1  UNL1        0.0447
     17 C          62.3505   85.7588   10.1738 C.ar    1  UNL1        0.0090
     18 C          62.3212   85.4814   11.6476 C.ar    1  UNL1        0.0300
     19 C          63.0526   84.2950   12.2021 C.ar    1  UNL1        0.1672
     20 F          63.0233   84.0175   13.6760 F       1  UNL1       -0.2018
     21 C          63.8133   83.3860   11.2828 C.ar    1  UNL1        0.1696
     22 F          64.5447   82.1995   11.8374 F       1  UNL1       -0.2017
     23 C          63.8426   83.6634    9.8090 C.ar    1  UNL1        0.0612
     24 C          63.1112   84.8498    9.2545 C.ar    1  UNL1        0.1386
     25 F          63.1405   85.1273    7.7807 F       1  UNL1       -0.2044
@<TRIPOS>BOND
     1    14    15    3
     2     6    15    1
     3     6     7    1
     4     7     8    1
     5     8     9    1
     6     8    10    1
     7    10    11    1
     8    11    12   am
     9    12    13    2
    10    12     5    1
    11     5     1    1
    12     1     2    1
    13     1    16    1
    14    16    17    1
    15    17    18   ar
    16    18    19   ar
    17    19    20    1
    18    19    21   ar
    19    21    22    1
    20    21    23   ar
    21    23    24   ar
    22    24    25    1
    23    11     6    1
    24    24    17   ar
    25     2     3    1
    26     2     4    1
@<TRIPOS>MOLECULE
*****
 25 26 0 0 0
SMALL
GASTEIGER

@<TRIPOS>ATOM
      1 C          64.8829   85.2040   14.7379 C.3     1  UNL1        0.0644
      2 N          66.3322   84.8805   14.5263 N.3     1  UNL1       -0.3215
      3 H          66.8756   85.7436   14.5182 H       1  UNL1        0.1188
      4 H          66.4463   84.3985   13.6346 H       1  UNL1        0.1188
      5 C          64.4485   86.6309   14.8976 C.3     1  UNL1        0.1011
      6 C          63.4752   89.7095   12.5114 C.3     1  UNL1        0.1700
      7 C          63.9004   91.1231   12.7776 C.3     1  UNL1        0.0726
      8 C          64.7108   91.1335   14.0399 C.3     1  UNL1        0.1834
      9 F          65.3358   92.3394   14.6765 F       1  UNL1       -0.2354
     10 C          64.7862   89.7264   14.5538 C.3     1  UNL1        0.1295
     11 N          64.0226   88.8463   13.6091 N.am    1  UNL1       -0.2656
     12 C          63.8387   87.3633   13.7394 C.2     1  UNL1        0.2278
     13 O          63.0450   86.6128   12.7113 O.2     1  UNL1       -0.2748
     14 N          61.8203   88.7733   10.1909 N.1     1  UNL1       -0.1942
     15 C          62.6477   89.2414   11.3512 C.1     1  UNL1        0.0926
     16 C          63.8680   84.1007   14.7898 C.3     1  UNL1        0.0447
     17 C          63.6407   83.2335   13.5872 C.ar    1  UNL1        0.0090
     18 C          64.3546   83.5313   12.3021 C.ar    1  UNL1        0.0300
     19 C          64.1273   82.6640   11.0995 C.ar    1  UNL1        0.1672
     20 F          64.8412   82.9618    9.8143 F       1  UNL1       -0.2018
     21 C          63.1861   81.4990   11.1821 C.ar    1  UNL1        0.1696
     22 F          62.9588   80.6317    9.9794 F       1  UNL1       -0.2017
     23 C          62.4722   81.2012   12.4672 C.ar    1  UNL1        0.0612
     24 C          62.6995   82.0684   13.6698 C.ar    1  UNL1        0.1386
     25 F          61.9856   81.7706   14.9550 F       1  UNL1       -0.2044
@<TRIPOS>BOND
     1    14    15    3
     2     6    15    1
     3     6     7    1
     4     7     8    1
     5     8     9    1
     6     8    10    1
     7    10    11    1
     8    11    12   am
     9    12    13    2
    10    12     5    1
    11     5     1    1
    12     1     2    1
    13     1    16    1
    14    16    17    1
    15    17    18   ar
    16    18    19   ar
    17    19    20    1
    18    19    21   ar
    19    21    22    1
    20    21    23   ar
    21    23    24   ar
    22    24    25    1
    23    11     6    1
    24    24    17   ar
    25     2     3    1
    26     2     4    1
@<TRIPOS>MOLECULE
*****
 25 26 0 0 0
SMALL
GASTEIGER

@<TRIPOS>ATOM
      1 C          62.4609   89.7845   11.9952 C.3     1  UNL1        0.0644
      2 N          61.0614   89.7207   12.5314 N.3     1  UNL1       -0.3215
      3 H          61.0516   90.0513   13.4962 H       1  UNL1        0.1188
      4 H          60.7285   88.7571   12.4987 H       1  UNL1        0.1188
      5 C          63.5758   90.2827   12.8663 C.3     1  UNL1        0.1011
      6 C          66.1864   93.3200   13.1476 C.3     1  UNL1        0.1700
      7 C          66.9854   93.6062   14.3844 C.3     1  UNL1        0.0726
      8 C          66.6214   92.5825   15.4187 C.3     1  UNL1        0.1834
      9 F          67.1827   92.4933   16.8068 F       1  UNL1       -0.2354
     10 C          65.5974   91.6637   14.8210 C.3     1  UNL1        0.1295
     11 N          65.3286   92.1195   13.4174 N.am    1  UNL1       -0.2656
     12 C          64.3702   91.4860   12.4529 C.2     1  UNL1        0.2278
     13 O          64.2063   92.0558   11.0751 O.2     1  UNL1       -0.2748
     14 N          66.2866   94.8757   10.5845 N.1     1  UNL1       -0.1942
     15 C          66.2365   94.0979   11.8661 C.1     1  UNL1        0.0926
     16 C          62.7454   89.3503   10.5879 C.3     1  UNL1        0.0447
     17 C          61.7285   88.5492    9.8301 C.ar    1  UNL1        0.0090
     18 C          60.7572   89.2395    8.9192 C.ar    1  UNL1        0.0300
     19 C          59.7404   88.4384    8.1614 C.ar    1  UNL1        0.1672
     20 F          58.7690   89.1288    7.2504 F       1  UNL1       -0.2018
     21 C          59.6949   86.9470    8.3145 C.ar    1  UNL1        0.1696
     22 F          58.6780   86.1459    7.5567 F       1  UNL1       -0.2017
     23 C          60.6663   86.2566    9.2254 C.ar    1  UNL1        0.0612
     24 C          61.6831   87.0577    9.9832 C.ar    1  UNL1        0.1386
     25 F          62.6545   86.3673   10.8942 F       1  UNL1       -0.2044
@<TRIPOS>BOND
     1    14    15    3
     2     6    15    1
     3     6     7    1
     4     7     8    1
     5     8     9    1
     6     8    10    1
     7    10    11    1
     8    11    12   am
     9    12    13    2
    10    12     5    1
    11     5     1    1
    12     1     2    1
    13     1    16    1
    14    16    17    1
    15    17    18   ar
    16    18    19   ar
    17    19    20    1
    18    19    21   ar
    19    21    22    1
    20    21    23   ar
    21    23    24   ar
    22    24    25    1
    23    11     6    1
    24    24    17   ar
    25     2     3    1
    26     2     4    1
@<TRIPOS>MOLECULE
*****
 25 26 0 0 0
SMALL
GASTEIGER

@<TRIPOS>ATOM
      1 C          62.5022   89.9161   11.9938 C.3     1  UNL1        0.0644
      2 N          61.2012   89.6256   12.6816 N.3     1  UNL1       -0.3215
      3 H          61.3169   89.7364   13.6889 H       1  UNL1        0.1188
      4 H          60.9140   88.6687   12.4756 H       1  UNL1        0.1188
      5 C          63.7074   90.3001   12.8002 C.3     1  UNL1        0.1011
      6 C          66.2606   93.3667   13.2436 C.3     1  UNL1        0.1700
      7 C          67.0509   93.6047   14.4961 C.3     1  UNL1        0.0726
      8 C          66.7033   92.5235   15.4761 C.3     1  UNL1        0.1834
      9 F          67.2626   92.3746   16.8599 F       1  UNL1       -0.2354
     10 C          65.6981   91.6174   14.8291 C.3     1  UNL1        0.1295
     11 N          65.4245   92.1385   13.4494 N.am    1  UNL1       -0.2656
     12 C          64.4805   91.5371   12.4509 C.2     1  UNL1        0.2278
     13 O          64.3096   92.1727   11.1030 O.2     1  UNL1       -0.2748
     14 N          66.3386   95.0516   10.7627 N.1     1  UNL1       -0.1942
     15 C          66.2996   94.2092   12.0032 C.1     1  UNL1        0.0926
     16 C          62.5981   89.8226   10.4999 C.3     1  UNL1        0.0447
     17 C          61.8781   88.7283    9.7691 C.ar    1  UNL1        0.0090
     18 C          62.5689   87.4239    9.5022 C.ar    1  UNL1        0.0300
     19 C          61.8489   86.3296    8.7714 C.ar    1  UNL1        0.1672
     20 F          62.5397   85.0252    8.5045 F       1  UNL1       -0.2018
     21 C          60.4379   86.5397    8.3076 C.ar    1  UNL1        0.1696
     22 F          59.7179   85.4454    7.5768 F       1  UNL1       -0.2017
     23 C          59.7471   87.8441    8.5744 C.ar    1  UNL1        0.0612
     24 C          60.4671   88.9384    9.3052 C.ar    1  UNL1        0.1386
     25 F          59.7763   90.2429    9.5721 F       1  UNL1       -0.2044
@<TRIPOS>BOND
     1    14    15    3
     2     6    15    1
     3     6     7    1
     4     7     8    1
     5     8     9    1
     6     8    10    1
     7    10    11    1
     8    11    12   am
     9    12    13    2
    10    12     5    1
    11     5     1    1
    12     1     2    1
    13     1    16    1
    14    16    17    1
    15    17    18   ar
    16    18    19   ar
    17    19    20    1
    18    19    21   ar
    19    21    22    1
    20    21    23   ar
    21    23    24   ar
    22    24    25    1
    23    11     6    1
    24    24    17   ar
    25     2     3    1
    26     2     4    1
@<TRIPOS>MOLECULE
*****
 25 26 0 0 0
SMALL
GASTEIGER

@<TRIPOS>ATOM
      1 C          63.7529   89.6064   15.2663 C.3     1  UNL1        0.0644
      2 N          62.4470   89.3455   15.9567 N.3     1  UNL1       -0.3215
      3 H          62.2065   88.3583   15.8675 H       1  UNL1        0.1188
      4 H          61.7163   89.9135   15.5278 H       1  UNL1        0.1188
      5 C          64.4808   88.4830   14.5893 C.3     1  UNL1        0.1011
      6 C          63.0787   85.1583   12.8287 C.3     1  UNL1        0.1700
      7 C          63.3042   83.7800   13.3759 C.3     1  UNL1        0.0726
      8 C          64.1104   83.9071   14.6345 C.3     1  UNL1        0.1834
      9 F          64.5642   82.7760   15.5089 F       1  UNL1       -0.2354
     10 C          64.3831   85.3639   14.8651 C.3     1  UNL1        0.1295
     11 N          63.7455   86.1372   13.7491 N.am    1  UNL1       -0.2656
     12 C          63.7703   87.6277   13.5826 C.2     1  UNL1        0.2278
     13 O          63.0845   88.2629   12.4095 O.2     1  UNL1       -0.2748
     14 N          61.5605   85.8376   10.3320 N.1     1  UNL1       -0.1942
     15 C          62.3196   85.4980   11.5804 C.1     1  UNL1        0.0926
     16 C          64.3308   90.9905   15.2529 C.3     1  UNL1        0.0447
     17 C          65.1079   91.4673   14.0617 C.ar    1  UNL1        0.0090
     18 C          64.4059   91.7205   12.7606 C.ar    1  UNL1        0.0300
     19 C          65.1830   92.1973   11.5695 C.ar    1  UNL1        0.1672
     20 F          64.4810   92.4505   10.2683 F       1  UNL1       -0.2018
     21 C          66.6622   92.4208   11.6796 C.ar    1  UNL1        0.1696
     22 F          67.4393   92.8976   10.4884 F       1  UNL1       -0.2017
     23 C          67.3642   92.1676   12.9807 C.ar    1  UNL1        0.0612
     24 C          66.5870   91.6909   14.1718 C.ar    1  UNL1        0.1386
     25 F          67.2891   91.4376   15.4730 F       1  UNL1       -0.2044
@<TRIPOS>BOND
     1    14    15    3
     2     6    15    1
     3     6     7    1
     4     7     8    1
     5     8     9    1
     6     8    10    1
     7    10    11    1
     8    11    12   am
     9    12    13    2
    10    12     5    1
    11     5     1    1
    12     1     2    1
    13     1    16    1
    14    16    17    1
    15    17    18   ar
    16    18    19   ar
    17    19    20    1
    18    19    21   ar
    19    21    22    1
    20    21    23   ar
    21    23    24   ar
    22    24    25    1
    23    11     6    1
    24    24    17   ar
    25     2     3    1
    26     2     4    1
@<TRIPOS>MOLECULE
*****
 25 26 0 0 0
SMALL
GASTEIGER

@<TRIPOS>ATOM
      1 C          60.8605   89.5037   10.8915 C.3     1  UNL1        0.0644
      2 N          60.1557   90.5692   11.6775 N.3     1  UNL1       -0.3215
      3 H          60.6965   91.4332   11.6402 H       1  UNL1        0.1188
      4 H          60.0607   90.2692   12.6478 H       1  UNL1        0.1188
      5 C          62.1594   89.8118   10.2073 C.3     1  UNL1        0.1011
      6 C          64.7152   91.2087   12.9706 C.3     1  UNL1        0.1700
      7 C          65.0075   90.4942   14.2567 C.3     1  UNL1        0.0726
      8 C          64.1942   89.2341   14.2821 C.3     1  UNL1        0.1834
      9 F          64.1786   88.2169   15.3844 F       1  UNL1       -0.2354
     10 C          63.3992   89.1698   13.0118 C.3     1  UNL1        0.1295
     11 N          63.7212   90.3902   12.2012 N.am    1  UNL1       -0.2656
     12 C          63.1496   90.7321   10.8572 C.2     1  UNL1        0.2278
     13 O          63.5681   91.9943   10.1632 O.2     1  UNL1       -0.2748
     14 N          65.9090   93.8168   12.0917 N.1     1  UNL1       -0.1942
     15 C          65.3121   92.5127   12.5311 C.1     1  UNL1        0.0926
     16 C          60.2665   88.1301   10.7895 C.3     1  UNL1        0.0447
     17 C          60.7357   87.1874    9.7212 C.ar    1  UNL1        0.0090
     18 C          62.0221   86.4361    9.8961 C.ar    1  UNL1        0.0300
     19 C          62.4913   85.4935    8.8278 C.ar    1  UNL1        0.1672
     20 F          63.7778   84.7421    9.0027 F       1  UNL1       -0.2018
     21 C          61.6740   85.3021    7.5847 C.ar    1  UNL1        0.1696
     22 F          62.1432   84.3594    6.5163 F       1  UNL1       -0.2017
     23 C          60.3876   86.0534    7.4098 C.ar    1  UNL1        0.0612
     24 C          59.9184   86.9960    8.4781 C.ar    1  UNL1        0.1386
     25 F          58.6319   87.7474    8.3032 F       1  UNL1       -0.2044
@<TRIPOS>BOND
     1    14    15    3
     2     6    15    1
     3     6     7    1
     4     7     8    1
     5     8     9    1
     6     8    10    1
     7    10    11    1
     8    11    12   am
     9    12    13    2
    10    12     5    1
    11     5     1    1
    12     1     2    1
    13     1    16    1
    14    16    17    1
    15    17    18   ar
    16    18    19   ar
    17    19    20    1
    18    19    21   ar
    19    21    22    1
    20    21    23   ar
    21    23    24   ar
    22    24    25    1
    23    11     6    1
    24    24    17   ar
    25     2     3    1
    26     2     4    1
@<TRIPOS>MOLECULE
*****
 25 26 0 0 0
SMALL
GASTEIGER

@<TRIPOS>ATOM
      1 C          62.7201   85.0952    9.6794 C.3     1  UNL1        0.0644
      2 N          63.2194   85.2597    8.2746 N.3     1  UNL1       -0.3215
      3 H          64.1542   84.8590    8.1969 H       1  UNL1        0.1188
      4 H          63.2542   86.2518    8.0401 H       1  UNL1        0.1188
      5 C          63.5803   84.4212   10.7071 C.3     1  UNL1        0.1011
      6 C          62.3298   82.9609   14.2317 C.3     1  UNL1        0.1700
      7 C          62.0362   81.5081   14.4627 C.3     1  UNL1        0.0726
      8 C          62.2936   80.7736   13.1804 C.3     1  UNL1        0.1834
      9 F          62.1275   79.2992   12.9603 F       1  UNL1       -0.2354
     10 C          62.7463   81.7723   12.1570 C.3     1  UNL1        0.1295
     11 N          62.7687   83.1242   12.8067 N.am    1  UNL1       -0.2656
     12 C          63.1611   84.4130   12.1473 C.2     1  UNL1        0.2278
     13 O          63.1344   85.6935   12.9280 O.2     1  UNL1       -0.2748
     14 N          62.0826   85.1545   16.2632 N.1     1  UNL1       -0.1942
     15 C          62.2062   84.0577   15.2474 C.1     1  UNL1        0.0926
     16 C          61.3606   85.6045   10.0566 C.3     1  UNL1        0.0447
     17 C          60.7488   86.7435    9.2961 C.ar    1  UNL1        0.0090
     18 C          60.7622   88.1264    9.8770 C.ar    1  UNL1        0.0300
     19 C          60.1504   89.2653    9.1164 C.ar    1  UNL1        0.1672
     20 F          60.1639   90.6482    9.6973 F       1  UNL1       -0.2018
     21 C          59.5251   89.0214    7.7750 C.ar    1  UNL1        0.1696
     22 F          58.9133   90.1604    7.0144 F       1  UNL1       -0.2017
     23 C          59.5117   87.6385    7.1941 C.ar    1  UNL1        0.0612
     24 C          60.1235   86.4996    7.9546 C.ar    1  UNL1        0.1386
     25 F          60.1100   85.1166    7.3737 F       1  UNL1       -0.2044
@<TRIPOS>BOND
     1    14    15    3
     2     6    15    1
     3     6     7    1
     4     7     8    1
     5     8     9    1
     6     8    10    1
     7    10    11    1
     8    11    12   am
     9    12    13    2
    10    12     5    1
    11     5     1    1
    12     1     2    1
    13     1    16    1
    14    16    17    1
    15    17    18   ar
    16    18    19   ar
    17    19    20    1
    18    19    21   ar
    19    21    22    1
    20    21    23   ar
    21    23    24   ar
    22    24    25    1
    23    11     6    1
    24    24    17   ar
    25     2     3    1
    26     2     4    1
@<TRIPOS>MOLECULE
*****
 25 26 0 0 0
SMALL
GASTEIGER

@<TRIPOS>ATOM
      1 C          63.0825   84.7289    9.6498 C.3     1  UNL1        0.0644
      2 N          63.0450   85.1397    8.2076 N.3     1  UNL1       -0.3215
      3 H          62.2650   85.7793    8.0565 H       1  UNL1        0.1188
      4 H          62.9256   84.3134    7.6217 H       1  UNL1        0.1188
      5 C          62.0590   85.2618   10.6083 C.3     1  UNL1        0.1011
      6 C          61.6319   89.2427   10.9077 C.3     1  UNL1        0.1700
      7 C          60.8637   90.0646    9.9155 C.3     1  UNL1        0.0726
      8 C          60.3286   89.1396    8.8628 C.3     1  UNL1        0.1834
      9 F          59.5014   89.5383    7.6768 F       1  UNL1       -0.2354
     10 C          60.7662   87.7461    9.2044 C.3     1  UNL1        0.1295
     11 N          61.5716   87.8098   10.4682 N.am    1  UNL1       -0.2656
     12 C          62.2055   86.6451   11.1694 C.2     1  UNL1        0.2278
     13 O          62.9858   86.8638   12.4316 O.2     1  UNL1       -0.2748
     14 N          63.0414   90.2823   13.3434 N.1     1  UNL1       -0.1942
     15 C          62.3366   89.7625   12.1255 C.1     1  UNL1        0.0926
     16 C          64.1435   83.7853   10.1335 C.3     1  UNL1        0.0447
     17 C          63.8186   82.7678   11.1867 C.ar    1  UNL1        0.0090
     18 C          63.3086   81.4142   10.7898 C.ar    1  UNL1        0.0300
     19 C          62.9838   80.3967   11.8430 C.ar    1  UNL1        0.1672
     20 F          62.4737   79.0430   11.4461 F       1  UNL1       -0.2018
     21 C          63.1691   80.7328   13.2930 C.ar    1  UNL1        0.1696
     22 F          62.8443   79.7152   14.3462 F       1  UNL1       -0.2017
     23 C          63.6791   82.0864   13.6899 C.ar    1  UNL1        0.0612
     24 C          64.0039   83.1039   12.6368 C.ar    1  UNL1        0.1386
     25 F          64.5140   84.4575   13.0337 F       1  UNL1       -0.2044
@<TRIPOS>BOND
     1    14    15    3
     2     6    15    1
     3     6     7    1
     4     7     8    1
     5     8     9    1
     6     8    10    1
     7    10    11    1
     8    11    12   am
     9    12    13    2
    10    12     5    1
    11     5     1    1
    12     1     2    1
    13     1    16    1
    14    16    17    1
    15    17    18   ar
    16    18    19   ar
    17    19    20    1
    18    19    21   ar
    19    21    22    1
    20    21    23   ar
    21    23    24   ar
    22    24    25    1
    23    11     6    1
    24    24    17   ar
    25     2     3    1
    26     2     4    1
@<TRIPOS>MOLECULE
*****
 25 26 0 0 0
SMALL
GASTEIGER

@<TRIPOS>ATOM
      1 C          60.8880   88.8270   10.3564 C.3     1  UNL1        0.0644
      2 N          60.7746   89.5366    9.0397 N.3     1  UNL1       -0.3215
      3 H          61.0935   90.4998    9.1440 H       1  UNL1        0.1188
      4 H          59.8016   89.5318    8.7336 H       1  UNL1        0.1188
      5 C          61.4102   89.5562   11.5588 C.3     1  UNL1        0.1011
      6 C          64.6492   91.6440   12.6855 C.3     1  UNL1        0.1700
      7 C          65.1286   91.7164   14.1049 C.3     1  UNL1        0.0726
      8 C          64.1994   90.8966   14.9504 C.3     1  UNL1        0.1834
      9 F          64.3052   90.6918   16.4325 F       1  UNL1       -0.2354
     10 C          63.1458   90.3177   14.0533 C.3     1  UNL1        0.1295
     11 N          63.4238   90.7796   12.6535 N.am    1  UNL1       -0.2656
     12 C          62.6179   90.4373   11.4356 C.2     1  UNL1        0.2278
     13 O          63.0197   90.9760   10.0946 O.2     1  UNL1       -0.2748
     14 N          65.9187   92.9916   10.3249 N.1     1  UNL1       -0.1942
     15 C          65.2840   92.3178   11.5052 C.1     1  UNL1        0.0926
     16 C          60.4792   87.3884   10.4707 C.3     1  UNL1        0.0447
     17 C          61.5038   86.3032   10.3192 C.ar    1  UNL1        0.0090
     18 C          62.0463   85.6092   11.5332 C.ar    1  UNL1        0.0300
     19 C          63.0708   84.5241   11.3817 C.ar    1  UNL1        0.1672
     20 F          63.6134   83.8300   12.5958 F       1  UNL1       -0.2018
     21 C          63.5527   84.1331   10.0161 C.ar    1  UNL1        0.1696
     22 F          64.5773   83.0479    9.8646 F       1  UNL1       -0.2017
     23 C          63.0102   84.8271    8.8021 C.ar    1  UNL1        0.0612
     24 C          61.9857   85.9122    8.9536 C.ar    1  UNL1        0.1386
     25 F          61.4431   86.6063    7.7396 F       1  UNL1       -0.2044
@<TRIPOS>BOND
     1    14    15    3
     2     6    15    1
     3     6     7    1
     4     7     8    1
     5     8     9    1
     6     8    10    1
     7    10    11    1
     8    11    12   am
     9    12    13    2
    10    12     5    1
    11     5     1    1
    12     1     2    1
    13     1    16    1
    14    16    17    1
    15    17    18   ar
    16    18    19   ar
    17    19    20    1
    18    19    21   ar
    19    21    22    1
    20    21    23   ar
    21    23    24   ar
    22    24    25    1
    23    11     6    1
    24    24    17   ar
    25     2     3    1
    26     2     4    1
