@<TRIPOS>MOLECULE
*****
 54 58 0 0 0
SMALL
GASTEIGER

@<TRIPOS>ATOM
      1 C          62.1773   89.3404   10.6269 C.3     1  UNL1        0.0760
      2 C          61.9361   86.7734   10.9466 C.2     1  UNL1        0.2403
      3 O          60.7041   86.9921   11.7738 O.2     1  UNL1       -0.2733
      4 N          62.6727   87.9475   10.3731 N.am    1  UNL1       -0.3043
      5 H          63.4813   87.8040    9.8302 H       1  UNL1        0.1494
      6 C          62.4316   85.3805   10.6929 C.3     1  UNL1        0.1496
      7 N          63.1609   83.8330   14.2739 N.am    1  UNL1       -0.2601
      8 C          63.0797   84.8174   13.1450 C.2     1  UNL1        0.3045
      9 O          63.5654   86.2233   13.3394 O.2     1  UNL1       -0.2526
     10 N          62.5128   84.3960   11.8218 N.am    1  UNL1       -0.2824
     11 H          62.1940   83.4733   11.6942 H       1  UNL1        0.1514
     12 C          62.6752   82.4273   14.0795 C.3     1  UNL1        0.0773
     13 C          62.9462   80.9982   13.7129 C.3     1  UNL1        0.0216
     14 C          61.5628   81.4214   14.1093 C.3     1  UNL1        0.0216
     15 C          63.7278   84.2544   15.5971 C.3     1  UNL1        0.1412
     16 C          63.3007   88.0451   16.3142 C.ar    1  UNL1        0.0875
     17 N          63.7342   86.9216   15.4199 N.ar    1  UNL1       -0.2453
     18 C          63.4511   85.6298   16.1279 C.ar    1  UNL1        0.0858
     19 C          62.8426   85.9550   17.4598 C.ar    1  UNL1        0.0530
     20 S          62.7497   87.4477   17.5750 S.2     1  UNL1       -0.0705
     21 C          63.4917   90.5085   17.1172 C.3     1  UNL1        0.0069
     22 C          63.4007   89.5089   16.0025 C.3     1  UNL1        0.0465
     23 C          63.4096   89.9731   14.5762 C.3     1  UNL1        0.0069
     24 C          62.8458   84.9720    9.3103 C.3     1  UNL1        0.0270
     25 C          62.1988   85.6069    8.1152 C.3     1  UNL1        0.0022
     26 C          63.9071   83.9287    9.1229 C.3     1  UNL1        0.0022
     27 C          63.0864   90.3580   11.2498 C.3     1  UNL1        0.0216
     28 C          63.9284   91.2436   10.3801 C.3     1  UNL1        0.0217
     29 C          64.9279   92.1738   11.0014 C.3     1  UNL1        0.0792
     30 N          64.6757   92.7427   12.3662 N.am    1  UNL1       -0.2720
     31 C          65.5382   92.3299   13.5219 C.2     1  UNL1        0.4019
     32 O          66.6530   91.3483   13.3128 O.2     1  UNL1       -0.2264
     33 H          63.9440   93.3870   12.5034 H       1  UNL1        0.1527
     34 O          65.2860   92.8988   14.8867 O.3     1  UNL1       -0.4291
     35 C          66.1401   92.4761   16.0451 C.3     1  UNL1        0.2447
     36 C          67.6044   92.8011   16.0552 C.ar    1  UNL1        0.0714
     37 C          68.7114   91.8704   16.4532 C.ar    1  UNL1        0.1053
     38 N          70.0100   92.6079   16.3131 N.ar    1  UNL1       -0.2350
     39 C          69.7056   93.9945   15.8285 C.ar    1  UNL1        0.1343
     40 S          68.2189   94.1138   15.6691 S.2     1  UNL1       -0.0652
     41 C          66.1795   92.5350   10.2578 C.3     1  UNL1        0.0460
     42 C          66.5041   93.9749    9.9905 C.ar    1  UNL1       -0.0205
     43 C          66.0831   95.0324   10.9674 C.ar    1  UNL1       -0.0042
     44 C          66.4076   96.4723   10.7000 C.ar    1  UNL1       -0.0003
     45 C          67.1531   96.8545    9.4558 C.ar    1  UNL1       -0.0000
     46 C          67.5741   95.7970    8.4789 C.ar    1  UNL1       -0.0003
     47 C          67.2496   94.3572    8.7463 C.ar    1  UNL1       -0.0042
     48 C          60.7726   89.7157   10.2577 C.3     1  UNL1        0.0459
     49 C          60.1344   89.1232    9.0364 C.ar    1  UNL1       -0.0205
     50 C          60.0767   89.9126    7.7623 C.ar    1  UNL1       -0.0042
     51 C          59.4385   89.3200    6.5411 C.ar    1  UNL1       -0.0003
     52 C          58.8579   87.9380    6.5939 C.ar    1  UNL1       -0.0000
     53 C          58.9155   87.1485    7.8681 C.ar    1  UNL1       -0.0003
     54 C          59.5538   87.7410    9.0893 C.ar    1  UNL1       -0.0042
@<TRIPOS>BOND
     1    21    22    1
     2    22    23    1
     3    22    16    1
     4    16    17   ar
     5    17    18   ar
     6    18    15    1
     7    15     7    1
     8     7     8   am
     9     8     9    2
    10     8    10   am
    11     6    10    1
    12     6     2    1
    13     2     3    2
    14     2     4   am
    15     4     1    1
    16     1    27    1
    17    27    28    1
    18    29    28    1
    19    29    41    1
    20    41    42    1
    21    42    43   ar
    22    43    44   ar
    23    44    45   ar
    24    45    46   ar
    25    46    47   ar
    26    29    30    1
    27    30    31   am
    28    31    32    2
    29    31    34    1
    30    34    35    1
    31    35    36    1
    32    36    37   ar
    33    37    38   ar
    34    38    39   ar
    35    39    40   ar
    36     1    48    1
    37    48    49    1
    38    49    50   ar
    39    50    51   ar
    40    51    52   ar
    41    52    53   ar
    42    53    54   ar
    43     6    24    1
    44    24    25    1
    45    24    26    1
    46     7    12    1
    47    12    13    1
    48    13    14    1
    49    18    19   ar
    50    19    20   ar
    51    20    16   ar
    52    47    42   ar
    53    40    36   ar
    54    54    49   ar
    55    14    12    1
    56    10    11    1
    57     4     5    1
    58    30    33    1
@<TRIPOS>MOLECULE
*****
 54 58 0 0 0
SMALL
GASTEIGER

@<TRIPOS>ATOM
      1 C          62.9198   89.3532   11.0908 C.3     1  UNL1        0.0760
      2 C          61.6815   87.6883    9.5271 C.2     1  UNL1        0.2403
      3 O          60.8435   88.8123    8.9939 O.2     1  UNL1       -0.2733
      4 N          62.7197   87.9587   10.5756 N.am    1  UNL1       -0.3043
      5 H          63.2697   87.2210   10.9255 H       1  UNL1        0.1494
      6 C          61.4814   86.2938    9.0119 C.3     1  UNL1        0.1496
      7 N          62.7569   83.8150   11.8366 N.am    1  UNL1       -0.2601
      8 C          62.0687   84.9677   11.1675 C.2     1  UNL1        0.3045
      9 O          61.2794   85.9470   11.9849 O.2     1  UNL1       -0.2526
     10 N          62.1697   85.1411    9.6810 N.am    1  UNL1       -0.2824
     11 H          62.6877   84.4984    9.1445 H       1  UNL1        0.1514
     12 C          63.5461   82.8358   11.0192 C.3     1  UNL1        0.0773
     13 C          63.7194   81.4571   10.4544 C.3     1  UNL1        0.0216
     14 C          64.7398   82.5185   10.1682 C.3     1  UNL1        0.0216
     15 C          62.6559   83.6416   13.3231 C.3     1  UNL1        0.1412
     16 C          63.3954   86.3537   15.9996 C.ar    1  UNL1        0.0875
     17 N          62.4606   85.3817   15.3429 N.ar    1  UNL1       -0.2453
     18 C          63.2082   84.6924   14.2400 C.ar    1  UNL1        0.0858
     19 C          64.6051   85.2384   14.2152 C.ar    1  UNL1        0.0530
     20 S          64.7208   86.2652   15.3027 S.2     1  UNL1       -0.0705
     21 C          63.0830   88.7444   16.9674 C.3     1  UNL1        0.0069
     22 C          63.0632   87.2558   17.1509 C.3     1  UNL1        0.0465
     23 C          62.7112   86.6693   18.4859 C.3     1  UNL1        0.0069
     24 C          60.5932   86.0520    7.8277 C.3     1  UNL1        0.0270
     25 C          61.0723   85.1958    6.6931 C.3     1  UNL1        0.0022
     26 C          59.2258   86.6665    7.7780 C.3     1  UNL1        0.0022
     27 C          63.8700   90.2811   10.3937 C.3     1  UNL1        0.0216
     28 C          63.8980   91.7365   10.7556 C.3     1  UNL1        0.0217
     29 C          64.9611   92.2605   11.6751 C.3     1  UNL1        0.0792
     30 N          64.6391   92.5358   13.1140 N.am    1  UNL1       -0.2720
     31 C          64.7758   91.4454   14.1350 C.2     1  UNL1        0.4019
     32 O          65.2346   90.0798   13.7171 O.2     1  UNL1       -0.2264
     33 H          64.3379   93.4320   13.3883 H       1  UNL1        0.1527
     34 O          64.4538   91.7207   15.5740 O.3     1  UNL1       -0.4291
     35 C          65.3951   92.5355   16.4106 C.3     1  UNL1        0.2447
     36 C          66.8090   92.7484   15.9571 C.ar    1  UNL1        0.0714
     37 C          67.2706   93.7678   14.9583 C.ar    1  UNL1        0.1053
     38 N          68.7564   93.6287   14.8068 N.ar    1  UNL1       -0.2350
     39 C          69.2132   92.5232   15.7119 C.ar    1  UNL1        0.1343
     40 S          68.0096   91.9791   16.4228 S.2     1  UNL1       -0.0652
     41 C          66.3461   92.5091   11.1556 C.3     1  UNL1        0.0460
     42 C          66.6798   93.8198   10.5069 C.ar    1  UNL1       -0.0205
     43 C          67.3826   93.8435    9.1820 C.ar    1  UNL1       -0.0042
     44 C          67.7162   95.1542    8.5334 C.ar    1  UNL1       -0.0003
     45 C          67.3470   96.4412    9.2096 C.ar    1  UNL1       -0.0000
     46 C          66.6442   96.4175   10.5345 C.ar    1  UNL1       -0.0003
     47 C          66.3106   95.1068   11.1832 C.ar    1  UNL1       -0.0042
     48 C          62.1696   89.8197   12.3031 C.3     1  UNL1        0.0459
     49 C          60.6702   89.8617   12.2870 C.ar    1  UNL1       -0.0205
     50 C          59.8831   88.8437   13.0578 C.ar    1  UNL1       -0.0042
     51 C          58.3838   88.8858   13.0417 C.ar    1  UNL1       -0.0003
     52 C          57.6716   89.9458   12.2550 C.ar    1  UNL1       -0.0000
     53 C          58.4587   90.9639   11.4842 C.ar    1  UNL1       -0.0003
     54 C          59.9581   90.9219   11.5002 C.ar    1  UNL1       -0.0042
@<TRIPOS>BOND
     1    21    22    1
     2    22    23    1
     3    22    16    1
     4    16    17   ar
     5    17    18   ar
     6    18    15    1
     7    15     7    1
     8     7     8   am
     9     8     9    2
    10     8    10   am
    11     6    10    1
    12     6     2    1
    13     2     3    2
    14     2     4   am
    15     4     1    1
    16     1    27    1
    17    27    28    1
    18    29    28    1
    19    29    41    1
    20    41    42    1
    21    42    43   ar
    22    43    44   ar
    23    44    45   ar
    24    45    46   ar
    25    46    47   ar
    26    29    30    1
    27    30    31   am
    28    31    32    2
    29    31    34    1
    30    34    35    1
    31    35    36    1
    32    36    37   ar
    33    37    38   ar
    34    38    39   ar
    35    39    40   ar
    36     1    48    1
    37    48    49    1
    38    49    50   ar
    39    50    51   ar
    40    51    52   ar
    41    52    53   ar
    42    53    54   ar
    43     6    24    1
    44    24    25    1
    45    24    26    1
    46     7    12    1
    47    12    13    1
    48    13    14    1
    49    18    19   ar
    50    19    20   ar
    51    20    16   ar
    52    47    42   ar
    53    40    36   ar
    54    54    49   ar
    55    14    12    1
    56    10    11    1
    57     4     5    1
    58    30    33    1
@<TRIPOS>MOLECULE
*****
 54 58 0 0 0
SMALL
GASTEIGER

@<TRIPOS>ATOM
      1 C          63.4714   86.3002   13.1059 C.3     1  UNL1        0.0760
      2 C          62.5713   88.5906   12.2728 C.2     1  UNL1        0.2403
      3 O          61.2625   87.9482   11.9206 O.2     1  UNL1       -0.2733
      4 N          63.6758   87.7667   12.8655 N.am    1  UNL1       -0.3043
      5 H          64.5349   88.1883   13.0966 H       1  UNL1        0.1494
      6 C          62.7757   90.0571   12.0324 C.3     1  UNL1        0.1496
      7 N          65.8641   92.3648   12.9740 N.am    1  UNL1       -0.2601
      8 C          64.8588   91.6045   12.1609 C.2     1  UNL1        0.3045
      9 O          64.9313   91.6311   10.6628 O.2     1  UNL1       -0.2526
     10 N          63.7810   90.8174   12.8457 N.am    1  UNL1       -0.2824
     11 H          63.7334   90.7999   13.8289 H       1  UNL1        0.1514
     12 C          65.7916   92.3381   14.4720 C.3     1  UNL1        0.0773
     13 C          65.1245   91.8724   15.7321 C.3     1  UNL1        0.0216
     14 C          66.3332   92.7575   15.8064 C.3     1  UNL1        0.0216
     15 C          66.9419   93.1518   12.2892 C.3     1  UNL1        0.1412
     16 C          66.2590   95.9469    9.6840 C.ar    1  UNL1        0.0875
     17 N          66.7212   94.5623   10.0293 N.ar    1  UNL1       -0.2453
     18 C          66.5910   94.3867   11.5133 C.ar    1  UNL1        0.0858
     19 C          66.0483   95.6628   12.0852 C.ar    1  UNL1        0.0530
     20 S          65.8431   96.6271   10.9547 S.2     1  UNL1       -0.0705
     21 C          67.4983   96.8400    7.5826 C.3     1  UNL1        0.0069
     22 C          66.2196   96.5461    8.3096 C.3     1  UNL1        0.0465
     23 C          64.9015   96.8515    7.6620 C.3     1  UNL1        0.0069
     24 C          61.9749   90.7632   10.9789 C.3     1  UNL1        0.0270
     25 C          62.6194   91.1512    9.6812 C.3     1  UNL1        0.0022
     26 C          60.5295   91.0812   11.2230 C.3     1  UNL1        0.0022
     27 C          62.8735   85.4404   12.0321 C.3     1  UNL1        0.0216
     28 C          63.6606   85.1322   10.7930 C.3     1  UNL1        0.0217
     29 C          63.0050   84.4237    9.6448 C.3     1  UNL1        0.0792
     30 N          62.6196   82.9800    9.7759 N.am    1  UNL1       -0.2720
     31 C          63.6157   81.9811   10.2858 C.2     1  UNL1        0.4019
     32 O          64.9972   82.4260   10.6646 O.2     1  UNL1       -0.2264
     33 H          61.7128   82.6880    9.5272 H       1  UNL1        0.1527
     34 O          63.2303   80.5374   10.4169 O.3     1  UNL1       -0.4291
     35 C          62.7442   80.0075   11.7332 C.3     1  UNL1        0.2447
     36 C          62.7757   80.8820   12.9516 C.ar    1  UNL1        0.0714
     37 C          64.0030   81.2963   13.7079 C.ar    1  UNL1        0.1053
     38 N          63.5713   82.1660   14.8513 N.ar    1  UNL1       -0.2350
     39 C          62.0772   82.2892   14.8015 C.ar    1  UNL1        0.1343
     40 S          61.5855   81.4956   13.6274 S.2     1  UNL1       -0.0652
     41 C          62.7348   85.1589    8.3656 C.3     1  UNL1        0.0460
     42 C          61.5542   86.0787    8.2641 C.ar    1  UNL1       -0.0205
     43 C          60.3063   85.6233    7.5674 C.ar    1  UNL1       -0.0042
     44 C          59.1258   86.5430    7.4660 C.ar    1  UNL1       -0.0003
     45 C          59.1931   87.9182    8.0612 C.ar    1  UNL1       -0.0000
     46 C          60.4409   88.3737    8.7579 C.ar    1  UNL1       -0.0003
     47 C          61.6215   87.4539    8.8593 C.ar    1  UNL1       -0.0042
     48 C          63.8650   85.6937   14.4201 C.3     1  UNL1        0.0459
     49 C          63.4767   86.3668   15.7031 C.ar    1  UNL1       -0.0205
     50 C          62.9480   85.5531   16.8469 C.ar    1  UNL1       -0.0042
     51 C          62.5596   86.2263   18.1299 C.ar    1  UNL1       -0.0003
     52 C          62.6999   87.7132   18.2690 C.ar    1  UNL1       -0.0000
     53 C          63.2286   88.5270   17.1252 C.ar    1  UNL1       -0.0003
     54 C          63.6170   87.8538   15.8422 C.ar    1  UNL1       -0.0042
@<TRIPOS>BOND
     1    21    22    1
     2    22    23    1
     3    22    16    1
     4    16    17   ar
     5    17    18   ar
     6    18    15    1
     7    15     7    1
     8     7     8   am
     9     8     9    2
    10     8    10   am
    11     6    10    1
    12     6     2    1
    13     2     3    2
    14     2     4   am
    15     4     1    1
    16     1    27    1
    17    27    28    1
    18    29    28    1
    19    29    41    1
    20    41    42    1
    21    42    43   ar
    22    43    44   ar
    23    44    45   ar
    24    45    46   ar
    25    46    47   ar
    26    29    30    1
    27    30    31   am
    28    31    32    2
    29    31    34    1
    30    34    35    1
    31    35    36    1
    32    36    37   ar
    33    37    38   ar
    34    38    39   ar
    35    39    40   ar
    36     1    48    1
    37    48    49    1
    38    49    50   ar
    39    50    51   ar
    40    51    52   ar
    41    52    53   ar
    42    53    54   ar
    43     6    24    1
    44    24    25    1
    45    24    26    1
    46     7    12    1
    47    12    13    1
    48    13    14    1
    49    18    19   ar
    50    19    20   ar
    51    20    16   ar
    52    47    42   ar
    53    40    36   ar
    54    54    49   ar
    55    14    12    1
    56    10    11    1
    57     4     5    1
    58    30    33    1
@<TRIPOS>MOLECULE
*****
 54 58 0 0 0
SMALL
GASTEIGER

@<TRIPOS>ATOM
      1 C          63.5838   88.1924   13.0954 C.3     1  UNL1        0.0760
      2 C          63.5949   85.6792   12.4368 C.2     1  UNL1        0.2403
      3 O          64.7832   85.4521   13.3235 O.2     1  UNL1       -0.2733
      4 N          62.9951   87.0494   12.3227 N.am    1  UNL1       -0.3043
      5 H          62.2152   87.1985   11.7408 H       1  UNL1        0.1494
      6 C          63.0062   84.5362   11.6641 C.3     1  UNL1        0.1496
      7 N          60.7373   85.7971    8.6621 N.am    1  UNL1       -0.2601
      8 C          61.2526   85.5755   10.0532 C.2     1  UNL1        0.3045
      9 O          60.5298   86.1716   11.2247 O.2     1  UNL1       -0.2526
     10 N          62.4908   84.7578   10.2729 N.am    1  UNL1       -0.2824
     11 H          62.9652   84.3666    9.5041 H       1  UNL1        0.1514
     12 C          61.4601   85.2011    7.4907 C.3     1  UNL1        0.0773
     13 C          62.7428   84.8700    6.7873 C.3     1  UNL1        0.0216
     14 C          61.4292   84.4997    6.1651 C.3     1  UNL1        0.0216
     15 C          59.4991   86.6148    8.4424 C.3     1  UNL1        0.1412
     16 C          59.3556   89.9941    6.5383 C.ar    1  UNL1        0.0875
     17 N          58.9894   88.5450    6.6648 N.ar    1  UNL1       -0.2453
     18 C          59.6092   88.0185    7.9253 C.ar    1  UNL1        0.0858
     19 C          60.3586   89.1423    8.5778 C.ar    1  UNL1        0.0530
     20 S          60.2019   90.3633    7.7206 S.2     1  UNL1       -0.0705
     21 C          57.4933   91.1400    5.1353 C.3     1  UNL1        0.0069
     22 C          58.9474   90.9127    5.4251 C.3     1  UNL1        0.0465
     23 C          59.9932   91.6040    4.6015 C.3     1  UNL1        0.0069
     24 C          62.9329   83.1716   12.2826 C.3     1  UNL1        0.0270
     25 C          62.4563   83.0134   13.6960 C.3     1  UNL1        0.0022
     26 C          63.3362   81.9653   11.4876 C.3     1  UNL1        0.0022
     27 C          63.3121   89.6047   12.6692 C.3     1  UNL1        0.0216
     28 C          63.4953   90.7304   13.6434 C.3     1  UNL1        0.0217
     29 C          64.8049   91.4589   13.7101 C.3     1  UNL1        0.0792
     30 N          64.9777   92.7593   12.9826 N.am    1  UNL1       -0.2720
     31 C          64.8482   92.8060   11.4889 C.2     1  UNL1        0.4019
     32 O          64.5459   91.5523   10.7228 O.2     1  UNL1       -0.2264
     33 H          65.1760   93.5821   13.4855 H       1  UNL1        0.1527
     34 O          65.0209   94.1063   10.7614 O.3     1  UNL1       -0.4291
     35 C          66.3976   94.6203   10.4607 C.3     1  UNL1        0.2447
     36 C          67.3405   93.7989    9.6323 C.ar    1  UNL1        0.0714
     37 C          67.8024   94.1211    8.2420 C.ar    1  UNL1        0.1053
     38 N          68.7344   93.0324    7.7992 N.ar    1  UNL1       -0.2350
     39 C          68.8485   92.0372    8.9158 C.ar    1  UNL1        0.1343
     40 S          67.9870   92.5110   10.0486 S.2     1  UNL1       -0.0652
     41 C          65.9416   90.8871   14.5043 C.3     1  UNL1        0.0460
     42 C          67.1224   91.7456   14.8491 C.ar    1  UNL1       -0.0205
     43 C          67.0577   92.6717   16.0273 C.ar    1  UNL1       -0.0042
     44 C          68.2384   93.5302   16.3720 C.ar    1  UNL1       -0.0003
     45 C          69.4837   93.4626   15.5386 C.ar    1  UNL1       -0.0000
     46 C          69.5484   92.5365   14.3605 C.ar    1  UNL1       -0.0003
     47 C          68.3677   91.6780   14.0157 C.ar    1  UNL1       -0.0042
     48 C          64.4442   87.9231   14.2943 C.3     1  UNL1        0.0459
     49 C          63.8149   87.5074   15.5909 C.ar    1  UNL1       -0.0205
     50 C          63.3301   88.5476   16.5567 C.ar    1  UNL1       -0.0042
     51 C          62.7008   88.1319   17.8533 C.ar    1  UNL1       -0.0003
     52 C          62.5563   86.6760   18.1841 C.ar    1  UNL1       -0.0000
     53 C          63.0411   85.6357   17.2182 C.ar    1  UNL1       -0.0003
     54 C          63.6704   86.0514   15.9216 C.ar    1  UNL1       -0.0042
@<TRIPOS>BOND
     1    21    22    1
     2    22    23    1
     3    22    16    1
     4    16    17   ar
     5    17    18   ar
     6    18    15    1
     7    15     7    1
     8     7     8   am
     9     8     9    2
    10     8    10   am
    11     6    10    1
    12     6     2    1
    13     2     3    2
    14     2     4   am
    15     4     1    1
    16     1    27    1
    17    27    28    1
    18    29    28    1
    19    29    41    1
    20    41    42    1
    21    42    43   ar
    22    43    44   ar
    23    44    45   ar
    24    45    46   ar
    25    46    47   ar
    26    29    30    1
    27    30    31   am
    28    31    32    2
    29    31    34    1
    30    34    35    1
    31    35    36    1
    32    36    37   ar
    33    37    38   ar
    34    38    39   ar
    35    39    40   ar
    36     1    48    1
    37    48    49    1
    38    49    50   ar
    39    50    51   ar
    40    51    52   ar
    41    52    53   ar
    42    53    54   ar
    43     6    24    1
    44    24    25    1
    45    24    26    1
    46     7    12    1
    47    12    13    1
    48    13    14    1
    49    18    19   ar
    50    19    20   ar
    51    20    16   ar
    52    47    42   ar
    53    40    36   ar
    54    54    49   ar
    55    14    12    1
    56    10    11    1
    57     4     5    1
    58    30    33    1
@<TRIPOS>MOLECULE
*****
 54 58 0 0 0
SMALL
GASTEIGER

@<TRIPOS>ATOM
      1 C          62.6944   85.9240   10.5486 C.3     1  UNL1        0.0760
      2 C          61.1694   87.9875   10.9566 C.2     1  UNL1        0.2403
      3 O          60.0358   87.2856   10.2695 O.2     1  UNL1       -0.2733
      4 N          62.4988   87.3068   11.0961 N.am    1  UNL1       -0.3043
      5 H          63.2428   87.7675   11.5471 H       1  UNL1        0.1494
      6 C          60.9737   89.3702   11.5041 C.3     1  UNL1        0.1496
      7 N          63.9332   91.4582   13.1264 N.am    1  UNL1       -0.2601
      8 C          62.7606   90.5330   12.9891 C.2     1  UNL1        0.3045
      9 O          62.2019   89.8454   14.1996 O.2     1  UNL1       -0.2526
     10 N          62.1465   90.2954   11.6414 N.am    1  UNL1       -0.2824
     11 H          62.5131   90.7467   10.8469 H       1  UNL1        0.1514
     12 C          64.4918   92.1457   11.9160 C.3     1  UNL1        0.0773
     13 C          64.6129   92.2564   10.4250 C.3     1  UNL1        0.0216
     14 C          65.3382   93.2260   11.3104 C.3     1  UNL1        0.0216
     15 C          64.5473   91.6958   14.4742 C.3     1  UNL1        0.1412
     16 C          68.1675   92.7805   15.3595 C.ar    1  UNL1        0.0875
     17 N          66.6886   92.8265   15.6063 N.ar    1  UNL1       -0.2453
     18 C          66.0219   91.9435   14.5933 C.ar    1  UNL1        0.0858
     19 C          67.0887   91.3518   13.7205 C.ar    1  UNL1        0.0530
     20 S          68.4148   91.8691   14.1940 S.2     1  UNL1       -0.0705
     21 C          70.2310   92.7531   16.9377 C.3     1  UNL1        0.0069
     22 C          69.2150   93.5165   16.1409 C.3     1  UNL1        0.0465
     23 C          69.2466   95.0161   16.1257 C.3     1  UNL1        0.0069
     24 C          59.6054   89.8278   11.9144 C.3     1  UNL1        0.0270
     25 C          58.7755   88.9808   12.8330 C.3     1  UNL1        0.0022
     26 C          59.0670   91.1322   11.4060 C.3     1  UNL1        0.0022
     27 C          62.2987   84.7306   11.3664 C.3     1  UNL1        0.0216
     28 C          62.3282   84.8047   12.8643 C.3     1  UNL1        0.0217
     29 C          63.5519   84.3664   13.6129 C.3     1  UNL1        0.0792
     30 N          63.9005   82.9097   13.6932 N.am    1  UNL1       -0.2720
     31 C          62.9089   81.9308   14.2487 C.2     1  UNL1        0.4019
     32 O          61.5689   82.4086   14.7240 O.2     1  UNL1       -0.2264
     33 H          64.7800   82.5960   13.3812 H       1  UNL1        0.1527
     34 O          63.2574   80.4740   14.3290 O.3     1  UNL1       -0.4291
     35 C          62.6226   79.4978   13.3836 C.3     1  UNL1        0.2447
     36 C          62.7490   79.6976   11.9023 C.ar    1  UNL1        0.0714
     37 C          63.0517   80.9935   11.2102 C.ar    1  UNL1        0.1053
     38 N          63.0847   80.7335    9.7332 N.ar    1  UNL1       -0.2350
     39 C          62.8025   79.2769    9.5126 C.ar    1  UNL1        0.1343
     40 S          62.5950   78.6367   10.8532 S.2     1  UNL1       -0.0652
     41 C          64.4271   85.3849   14.2813 C.3     1  UNL1        0.0460
     42 C          63.8909   86.2048   15.4173 C.ar    1  UNL1       -0.0205
     43 C          64.0514   87.6961   15.4071 C.ar    1  UNL1       -0.0042
     44 C          63.5153   88.5159   16.5430 C.ar    1  UNL1       -0.0003
     45 C          62.8185   87.8444   17.6892 C.ar    1  UNL1       -0.0000
     46 C          62.6579   86.3530   17.6993 C.ar    1  UNL1       -0.0003
     47 C          63.1941   85.5332   16.5634 C.ar    1  UNL1       -0.0042
     48 C          63.2859   85.7348    9.1831 C.3     1  UNL1        0.0459
     49 C          62.4091   85.3294    8.0356 C.ar    1  UNL1       -0.0205
     50 C          62.9847   84.5495    6.8909 C.ar    1  UNL1       -0.0042
     51 C          62.1079   84.1440    5.7434 C.ar    1  UNL1       -0.0003
     52 C          60.6554   84.5185    5.7405 C.ar    1  UNL1       -0.0000
     53 C          60.0797   85.2985    6.8853 C.ar    1  UNL1       -0.0003
     54 C          60.9565   85.7039    8.0328 C.ar    1  UNL1       -0.0042
@<TRIPOS>BOND
     1    21    22    1
     2    22    23    1
     3    22    16    1
     4    16    17   ar
     5    17    18   ar
     6    18    15    1
     7    15     7    1
     8     7     8   am
     9     8     9    2
    10     8    10   am
    11     6    10    1
    12     6     2    1
    13     2     3    2
    14     2     4   am
    15     4     1    1
    16     1    27    1
    17    27    28    1
    18    29    28    1
    19    29    41    1
    20    41    42    1
    21    42    43   ar
    22    43    44   ar
    23    44    45   ar
    24    45    46   ar
    25    46    47   ar
    26    29    30    1
    27    30    31   am
    28    31    32    2
    29    31    34    1
    30    34    35    1
    31    35    36    1
    32    36    37   ar
    33    37    38   ar
    34    38    39   ar
    35    39    40   ar
    36     1    48    1
    37    48    49    1
    38    49    50   ar
    39    50    51   ar
    40    51    52   ar
    41    52    53   ar
    42    53    54   ar
    43     6    24    1
    44    24    25    1
    45    24    26    1
    46     7    12    1
    47    12    13    1
    48    13    14    1
    49    18    19   ar
    50    19    20   ar
    51    20    16   ar
    52    47    42   ar
    53    40    36   ar
    54    54    49   ar
    55    14    12    1
    56    10    11    1
    57     4     5    1
    58    30    33    1
@<TRIPOS>MOLECULE
*****
 54 58 0 0 0
SMALL
GASTEIGER

@<TRIPOS>ATOM
      1 C          61.7961   88.6160   12.0349 C.3     1  UNL1        0.0760
      2 C          62.6093   86.5764   10.6460 C.2     1  UNL1        0.2403
      3 O          62.9207   87.4850    9.4939 O.2     1  UNL1       -0.2733
      4 N          62.0470   87.1419   11.9165 N.am    1  UNL1       -0.3043
      5 H          61.8426   86.5455   12.6727 H       1  UNL1        0.1494
      6 C          62.8602   85.1023   10.5277 C.3     1  UNL1        0.1496
      7 N          63.3294   83.7765   14.2388 N.am    1  UNL1       -0.2601
      8 C          63.4201   84.6525   13.0246 C.2     1  UNL1        0.3045
      9 O          64.1613   85.9548   13.0929 O.2     1  UNL1       -0.2526
     10 N          62.7695   84.2262   11.7419 N.am    1  UNL1       -0.2824
     11 H          62.2831   83.3715   11.6971 H       1  UNL1        0.1514
     12 C          62.5883   82.4742   14.1704 C.3     1  UNL1        0.0773
     13 C          61.3232   81.6886   14.3498 C.3     1  UNL1        0.0216
     14 C          62.5697   81.0042   13.8725 C.3     1  UNL1        0.0216
     15 C          63.9800   84.2028   15.5214 C.3     1  UNL1        0.1412
     16 C          62.9134   87.7477   16.6882 C.ar    1  UNL1        0.0875
     17 N          63.4393   86.8181   15.6350 N.ar    1  UNL1       -0.2453
     18 C          63.5098   85.4409   16.2255 C.ar    1  UNL1        0.0858
     19 C          63.0275   85.5195   17.6437 C.ar    1  UNL1        0.0530
     20 S          62.6589   86.9452   17.9297 S.2     1  UNL1       -0.0705
     21 C          63.7353   90.1968   16.9637 C.3     1  UNL1        0.0069
     22 C          62.6826   89.2211   16.5282 C.3     1  UNL1        0.0465
     23 C          61.3991   89.7189   15.9326 C.3     1  UNL1        0.0069
     24 C          63.2017   84.5042    9.1952 C.3     1  UNL1        0.0270
     25 C          62.6405   85.1016    7.9389 C.3     1  UNL1        0.0022
     26 C          64.1044   83.3087    9.1189 C.3     1  UNL1        0.0022
     27 C          62.7637   89.4837   12.7837 C.3     1  UNL1        0.0216
     28 C          63.3672   90.6836   12.1159 C.3     1  UNL1        0.0217
     29 C          64.4880   91.4271   12.7800 C.3     1  UNL1        0.0792
     30 N          64.8587   92.8022   12.3089 N.am    1  UNL1       -0.2720
     31 C          64.6837   93.1732   10.8660 C.2     1  UNL1        0.4019
     32 O          64.1381   92.1692    9.8943 O.2     1  UNL1       -0.2264
     33 H          65.2167   93.4611   12.9467 H       1  UNL1        0.1527
     34 O          65.0543   94.5482   10.3950 O.3     1  UNL1       -0.4291
     35 C          66.4836   94.8715   10.0749 C.3     1  UNL1        0.2447
     36 C          67.3887   93.8079    9.5274 C.ar    1  UNL1        0.0714
     37 C          67.9926   93.7851    8.1546 C.ar    1  UNL1        0.1053
     38 N          68.8259   92.5435    8.0353 N.ar    1  UNL1       -0.2350
     39 C          68.7369   91.7990    9.3345 C.ar    1  UNL1        0.1343
     40 S          67.8486   92.5805   10.2566 S.2     1  UNL1       -0.0652
     41 C          65.2382   90.7956   13.9150 C.3     1  UNL1        0.0460
     42 C          66.3983   91.5133   14.5388 C.ar    1  UNL1       -0.0205
     43 C          66.2022   92.3025   15.7992 C.ar    1  UNL1       -0.0042
     44 C          67.3624   93.0201   16.4228 C.ar    1  UNL1       -0.0003
     45 C          68.7186   92.9486   15.7861 C.ar    1  UNL1       -0.0000
     46 C          68.9147   92.1595   14.5257 C.ar    1  UNL1       -0.0003
     47 C          67.7546   91.4418   13.9020 C.ar    1  UNL1       -0.0042
     48 C          60.5776   89.2224   11.4043 C.3     1  UNL1        0.0459
     49 C          60.1304   88.7673   10.0468 C.ar    1  UNL1       -0.0205
     50 C          60.2420   89.6923    8.8712 C.ar    1  UNL1       -0.0042
     51 C          59.7948   89.2372    7.5137 C.ar    1  UNL1       -0.0003
     52 C          59.2360   87.8572    7.3317 C.ar    1  UNL1       -0.0000
     53 C          59.1244   86.9321    8.5073 C.ar    1  UNL1       -0.0003
     54 C          59.5716   87.3872    9.8648 C.ar    1  UNL1       -0.0042
@<TRIPOS>BOND
     1    21    22    1
     2    22    23    1
     3    22    16    1
     4    16    17   ar
     5    17    18   ar
     6    18    15    1
     7    15     7    1
     8     7     8   am
     9     8     9    2
    10     8    10   am
    11     6    10    1
    12     6     2    1
    13     2     3    2
    14     2     4   am
    15     4     1    1
    16     1    27    1
    17    27    28    1
    18    29    28    1
    19    29    41    1
    20    41    42    1
    21    42    43   ar
    22    43    44   ar
    23    44    45   ar
    24    45    46   ar
    25    46    47   ar
    26    29    30    1
    27    30    31   am
    28    31    32    2
    29    31    34    1
    30    34    35    1
    31    35    36    1
    32    36    37   ar
    33    37    38   ar
    34    38    39   ar
    35    39    40   ar
    36     1    48    1
    37    48    49    1
    38    49    50   ar
    39    50    51   ar
    40    51    52   ar
    41    52    53   ar
    42    53    54   ar
    43     6    24    1
    44    24    25    1
    45    24    26    1
    46     7    12    1
    47    12    13    1
    48    13    14    1
    49    18    19   ar
    50    19    20   ar
    51    20    16   ar
    52    47    42   ar
    53    40    36   ar
    54    54    49   ar
    55    14    12    1
    56    10    11    1
    57     4     5    1
    58    30    33    1
@<TRIPOS>MOLECULE
*****
 54 58 0 0 0
SMALL
GASTEIGER

@<TRIPOS>ATOM
      1 C          62.0555   86.0154   10.2672 C.3     1  UNL1        0.0760
      2 C          60.6984   88.1025   11.0105 C.2     1  UNL1        0.2403
      3 O          59.8003   87.9426    9.8198 O.2     1  UNL1       -0.2733
      4 N          61.8261   87.1389   11.2342 N.am    1  UNL1       -0.3043
      5 H          62.4155   87.2439   12.0157 H       1  UNL1        0.1494
      6 C          60.4690   89.2260   11.9775 C.3     1  UNL1        0.1496
      7 N          63.7618   91.1832   13.0153 N.am    1  UNL1       -0.2601
      8 C          62.6243   90.6614   12.1884 C.2     1  UNL1        0.3045
      9 O          62.5046   91.0530   10.7453 O.2     1  UNL1       -0.2526
     10 N          61.6065   89.7479   12.8045 N.am    1  UNL1       -0.2824
     11 H          61.6850   89.4908   13.7516 H       1  UNL1        0.1514
     12 C          63.8814   90.7916   14.4583 C.3     1  UNL1        0.0773
     13 C          63.9546   89.7286   15.5141 C.3     1  UNL1        0.0216
     14 C          64.0154   91.1763   15.9019 C.3     1  UNL1        0.0216
     15 C          64.7796   92.0967   12.3992 C.3     1  UNL1        0.1412
     16 C          67.9714   92.6246   14.5439 C.ar    1  UNL1        0.0875
     17 N          66.4829   92.6930   14.3711 N.ar    1  UNL1       -0.2453
     18 C          66.1529   92.1990   12.9937 C.ar    1  UNL1        0.0858
     19 C          67.4375   91.8252   12.3153 C.ar    1  UNL1        0.0530
     20 S          68.5614   92.0882   13.2733 S.2     1  UNL1       -0.0705
     21 C          69.1020   94.4600   15.9939 C.3     1  UNL1        0.0069
     22 C          68.7356   93.0225   15.7716 C.3     1  UNL1        0.0465
     23 C          69.1336   91.9831   16.7772 C.3     1  UNL1        0.0069
     24 C          59.1021   89.8277   12.1176 C.3     1  UNL1        0.0270
     25 C          58.8287   91.2014   11.5807 C.3     1  UNL1        0.0022
     26 C          58.0086   89.0556   12.7945 C.3     1  UNL1        0.0022
     27 C          61.6217   84.6232   10.6184 C.3     1  UNL1        0.0216
     28 C          62.1097   83.9824   11.8838 C.3     1  UNL1        0.0217
     29 C          63.5519   83.5928   12.0194 C.3     1  UNL1        0.0792
     30 N          64.4036   84.2267   13.0790 N.am    1  UNL1       -0.2720
     31 C          64.4675   83.6229   14.4507 C.2     1  UNL1        0.4019
     32 O          63.6796   82.3852   14.7627 O.2     1  UNL1       -0.2264
     33 H          64.9207   85.0390   12.8742 H       1  UNL1        0.1527
     34 O          65.3192   84.2568   15.5103 O.3     1  UNL1       -0.4291
     35 C          64.9671   85.6140   16.0430 C.3     1  UNL1        0.2447
     36 C          63.5596   85.9109   16.4683 C.ar    1  UNL1        0.0714
     37 C          62.3379   85.1330   16.0779 C.ar    1  UNL1        0.1053
     38 N          61.1499   85.7790   16.7270 N.ar    1  UNL1       -0.2350
     39 C          61.6374   86.9562   17.5185 C.ar    1  UNL1        0.1343
     40 S          63.1266   87.0377   17.3587 S.2     1  UNL1       -0.0652
     41 C          64.1423   82.5692   11.0955 C.3     1  UNL1        0.0460
     42 C          63.5416   81.1971   11.0139 C.ar    1  UNL1       -0.0205
     43 C          63.3661   80.5333    9.6803 C.ar    1  UNL1       -0.0042
     44 C          62.7654   79.1613    9.5989 C.ar    1  UNL1       -0.0003
     45 C          62.3402   78.4531   10.8509 C.ar    1  UNL1       -0.0000
     46 C          62.5157   79.1170   12.1845 C.ar    1  UNL1       -0.0003
     47 C          63.1164   80.4890   12.2660 C.ar    1  UNL1       -0.0042
     48 C          62.7188   86.2843    8.9489 C.3     1  UNL1        0.0459
     49 C          62.2717   85.5485    7.7206 C.ar    1  UNL1       -0.0205
     50 C          63.2810   84.8642    6.8472 C.ar    1  UNL1       -0.0042
     51 C          62.8339   84.1285    5.6189 C.ar    1  UNL1       -0.0003
     52 C          61.3775   84.0771    5.2639 C.ar    1  UNL1       -0.0000
     53 C          60.3680   84.7615    6.1373 C.ar    1  UNL1       -0.0003
     54 C          60.8151   85.4972    7.3656 C.ar    1  UNL1       -0.0042
@<TRIPOS>BOND
     1    21    22    1
     2    22    23    1
     3    22    16    1
     4    16    17   ar
     5    17    18   ar
     6    18    15    1
     7    15     7    1
     8     7     8   am
     9     8     9    2
    10     8    10   am
    11     6    10    1
    12     6     2    1
    13     2     3    2
    14     2     4   am
    15     4     1    1
    16     1    27    1
    17    27    28    1
    18    29    28    1
    19    29    41    1
    20    41    42    1
    21    42    43   ar
    22    43    44   ar
    23    44    45   ar
    24    45    46   ar
    25    46    47   ar
    26    29    30    1
    27    30    31   am
    28    31    32    2
    29    31    34    1
    30    34    35    1
    31    35    36    1
    32    36    37   ar
    33    37    38   ar
    34    38    39   ar
    35    39    40   ar
    36     1    48    1
    37    48    49    1
    38    49    50   ar
    39    50    51   ar
    40    51    52   ar
    41    52    53   ar
    42    53    54   ar
    43     6    24    1
    44    24    25    1
    45    24    26    1
    46     7    12    1
    47    12    13    1
    48    13    14    1
    49    18    19   ar
    50    19    20   ar
    51    20    16   ar
    52    47    42   ar
    53    40    36   ar
    54    54    49   ar
    55    14    12    1
    56    10    11    1
    57     4     5    1
    58    30    33    1
@<TRIPOS>MOLECULE
*****
 54 58 0 0 0
SMALL
GASTEIGER

@<TRIPOS>ATOM
      1 C          62.4481   85.9630   11.7765 C.3     1  UNL1        0.0760
      2 C          62.3980   88.1711   10.4083 C.2     1  UNL1        0.2403
      3 O          63.0566   87.4721    9.2561 O.2     1  UNL1       -0.2733
      4 N          62.0937   87.4165   11.6685 N.am    1  UNL1       -0.3043
      5 H          61.6614   87.8753   12.4247 H       1  UNL1        0.1494
      6 C          62.0435   89.6246   10.3003 C.3     1  UNL1        0.1496
      7 N          64.5034   92.0245   12.2851 N.am    1  UNL1       -0.2601
      8 C          63.4681   90.9770   12.0008 C.2     1  UNL1        0.3045
      9 O          62.8221   90.2343   13.1326 O.2     1  UNL1       -0.2526
     10 N          63.0789   90.6722   10.5846 N.am    1  UNL1       -0.2824
     11 H          63.5029   91.1596    9.8417 H       1  UNL1        0.1514
     12 C          65.1494   92.7672   11.1533 C.3     1  UNL1        0.0773
     13 C          65.2859   94.0106   10.3255 C.3     1  UNL1        0.0216
     14 C          66.1319   92.8100   10.0206 C.3     1  UNL1        0.0216
     15 C          64.8927   92.3293   13.7013 C.3     1  UNL1        0.1412
     16 C          68.4049   93.0285   15.1984 C.ar    1  UNL1        0.0875
     17 N          66.9234   93.2617   15.1683 N.ar    1  UNL1       -0.2453
     18 C          66.3418   92.4083   14.0803 C.ar    1  UNL1        0.0858
     19 C          67.4639   91.6476   13.4381 C.ar    1  UNL1        0.0530
     20 S          68.7390   92.0310   14.1291 S.2     1  UNL1       -0.0705
     21 C          69.4550   95.1744   16.2193 C.3     1  UNL1        0.0069
     22 C          69.3808   93.6787   16.1336 C.3     1  UNL1        0.0465
     23 C          70.2827   92.8331   16.9832 C.3     1  UNL1        0.0069
     24 C          60.6538   90.0306    9.9080 C.3     1  UNL1        0.0270
     25 C          60.1186   89.6631    8.5558 C.3     1  UNL1        0.0022
     26 C          59.7994   90.8040   10.8680 C.3     1  UNL1        0.0022
     27 C          63.5508   85.5261   12.6947 C.3     1  UNL1        0.0216
     28 C          63.8565   84.0668   12.8584 C.3     1  UNL1        0.0217
     29 C          63.3856   83.3342   14.0798 C.3     1  UNL1        0.0792
     30 N          63.6098   83.9236   15.4408 N.am    1  UNL1       -0.2720
     31 C          62.5176   84.7051   16.1090 C.2     1  UNL1        0.4019
     32 O          61.2012   84.8972   15.4161 O.2     1  UNL1       -0.2264
     33 H          64.4739   83.7976   15.8956 H       1  UNL1        0.1527
     34 O          62.7419   85.2945   17.4700 O.3     1  UNL1       -0.4291
     35 C          62.5278   86.7618   17.6964 C.3     1  UNL1        0.2447
     36 C          63.1571   87.7628   16.7733 C.ar    1  UNL1        0.0714
     37 C          64.0374   87.4487   15.6002 C.ar    1  UNL1        0.1053
     38 N          64.4409   88.7454   14.9631 N.ar    1  UNL1       -0.2350
     39 C          63.8099   89.8609   15.7426 C.ar    1  UNL1        0.1343
     40 S          63.0164   89.2536   16.8614 S.2     1  UNL1       -0.0652
     41 C          62.6905   82.0124   13.9402 C.3     1  UNL1        0.0460
     42 C          62.7996   81.2392   12.6594 C.ar    1  UNL1       -0.0205
     43 C          62.5120   79.7671   12.6452 C.ar    1  UNL1       -0.0042
     44 C          62.6211   78.9940   11.3645 C.ar    1  UNL1       -0.0003
     45 C          63.0179   79.6929   10.0980 C.ar    1  UNL1       -0.0000
     46 C          63.3056   81.1650   10.1122 C.ar    1  UNL1       -0.0003
     47 C          63.1965   81.9381   11.3929 C.ar    1  UNL1       -0.0042
     48 C          61.6998   84.9463   10.9662 C.3     1  UNL1        0.0459
     49 C          61.7091   85.0268    9.4684 C.ar    1  UNL1       -0.0205
     50 C          62.8685   84.4725    8.6947 C.ar    1  UNL1       -0.0042
     51 C          62.8777   84.5529    7.1969 C.ar    1  UNL1       -0.0003
     52 C          61.7276   85.1876    6.4727 C.ar    1  UNL1       -0.0000
     53 C          60.5681   85.7419    7.2464 C.ar    1  UNL1       -0.0003
     54 C          60.5589   85.6614    8.7442 C.ar    1  UNL1       -0.0042
@<TRIPOS>BOND
     1    21    22    1
     2    22    23    1
     3    22    16    1
     4    16    17   ar
     5    17    18   ar
     6    18    15    1
     7    15     7    1
     8     7     8   am
     9     8     9    2
    10     8    10   am
    11     6    10    1
    12     6     2    1
    13     2     3    2
    14     2     4   am
    15     4     1    1
    16     1    27    1
    17    27    28    1
    18    29    28    1
    19    29    41    1
    20    41    42    1
    21    42    43   ar
    22    43    44   ar
    23    44    45   ar
    24    45    46   ar
    25    46    47   ar
    26    29    30    1
    27    30    31   am
    28    31    32    2
    29    31    34    1
    30    34    35    1
    31    35    36    1
    32    36    37   ar
    33    37    38   ar
    34    38    39   ar
    35    39    40   ar
    36     1    48    1
    37    48    49    1
    38    49    50   ar
    39    50    51   ar
    40    51    52   ar
    41    52    53   ar
    42    53    54   ar
    43     6    24    1
    44    24    25    1
    45    24    26    1
    46     7    12    1
    47    12    13    1
    48    13    14    1
    49    18    19   ar
    50    19    20   ar
    51    20    16   ar
    52    47    42   ar
    53    40    36   ar
    54    54    49   ar
    55    14    12    1
    56    10    11    1
    57     4     5    1
    58    30    33    1
@<TRIPOS>MOLECULE
*****
 54 58 0 0 0
SMALL
GASTEIGER

@<TRIPOS>ATOM
      1 C          62.8216   86.3619   12.4401 C.3     1  UNL1        0.0760
      2 C          63.6286   88.7505   13.0672 C.2     1  UNL1        0.2403
      3 O          63.7163   88.3427   14.5080 O.2     1  UNL1       -0.2733
      4 N          63.1812   87.7601   12.0332 N.am    1  UNL1       -0.3043
      5 H          63.1237   88.0278   11.0876 H       1  UNL1        0.1494
      6 C          63.9883   90.1488   12.6603 C.3     1  UNL1        0.1496
      7 N          66.2913   93.1238   13.9234 N.am    1  UNL1       -0.2601
      8 C          65.2414   92.3683   13.1639 C.2     1  UNL1        0.3045
      9 O          64.3946   93.0767   12.1484 O.2     1  UNL1       -0.2526
     10 N          65.0383   90.9043   13.4199 N.am    1  UNL1       -0.2824
     11 H          65.5940   90.4393   14.0863 H       1  UNL1        0.1514
     12 C          67.1381   92.4153   14.9388 C.3     1  UNL1        0.0773
     13 C          67.8526   91.1797   15.3998 C.3     1  UNL1        0.0216
     14 C          67.8901   92.4240   16.2366 C.3     1  UNL1        0.0216
     15 C          66.4945   94.5878   13.6675 C.3     1  UNL1        0.1412
     16 C          66.8699   95.2544    9.8621 C.ar    1  UNL1        0.0875
     17 N          67.0232   94.3607   11.0571 N.ar    1  UNL1       -0.2453
     18 C          66.5257   95.1059   12.2602 C.ar    1  UNL1        0.0858
     19 C          66.0650   96.4601   11.8087 C.ar    1  UNL1        0.0530
     20 S          66.2777   96.5519   10.3266 S.2     1  UNL1       -0.0705
     21 C          66.7144   95.7338    7.3135 C.3     1  UNL1        0.0069
     22 C          67.2432   94.9109    8.4506 C.3     1  UNL1        0.0465
     23 C          68.1454   93.7444    8.1761 C.3     1  UNL1        0.0069
     24 C          63.2981   90.7915   11.4940 C.3     1  UNL1        0.0270
     25 C          61.8029   90.9111   11.4801 C.3     1  UNL1        0.0022
     26 C          64.1030   91.3146   10.3414 C.3     1  UNL1        0.0022
     27 C          61.5707   85.7252   11.9112 C.3     1  UNL1        0.0216
     28 C          60.7654   86.4194   10.8531 C.3     1  UNL1        0.0217
     29 C          61.4245   86.8673    9.5822 C.3     1  UNL1        0.0792
     30 N          61.0468   88.1808    8.9641 N.am    1  UNL1       -0.2720
     31 C          59.7184   88.3357    8.2848 C.2     1  UNL1        0.4019
     32 O          58.7677   87.1771    8.2236 O.2     1  UNL1       -0.2264
     33 H          61.6708   88.9413    9.0043 H       1  UNL1        0.1527
     34 O          59.3407   89.6492    7.6667 O.3     1  UNL1       -0.4291
     35 C          58.7667   89.6888    6.2815 C.3     1  UNL1        0.2447
     36 C          59.1487   90.7945    5.3427 C.ar    1  UNL1        0.0714
     37 C          58.2164   91.8085    4.7488 C.ar    1  UNL1        0.1053
     38 N          59.0215   92.7211    3.8719 N.ar    1  UNL1       -0.2350
     39 C          60.4515   92.2712    3.9239 C.ar    1  UNL1        0.1343
     40 S          60.5301   91.0805    4.8328 S.2     1  UNL1       -0.0652
     41 C          62.4612   86.0018    8.9295 C.3     1  UNL1        0.0460
     42 C          62.1554   85.3144    7.6317 C.ar    1  UNL1       -0.0205
     43 C          60.7318   85.0478    7.2415 C.ar    1  UNL1       -0.0042
     44 C          60.4261   84.3605    5.9438 C.ar    1  UNL1       -0.0003
     45 C          61.5439   83.9396    5.0364 C.ar    1  UNL1       -0.0000
     46 C          62.9675   84.2062    5.4267 C.ar    1  UNL1       -0.0003
     47 C          63.2732   84.8935    6.7244 C.ar    1  UNL1       -0.0042
     48 C          63.7129   85.6004   13.3759 C.3     1  UNL1        0.0459
     49 C          63.6007   84.1075   13.4702 C.ar    1  UNL1       -0.0205
     50 C          64.3626   83.2364   12.5160 C.ar    1  UNL1       -0.0042
     51 C          64.2504   81.7436   12.6103 C.ar    1  UNL1       -0.0003
     52 C          63.3762   81.1219   13.6587 C.ar    1  UNL1       -0.0000
     53 C          62.6142   81.9930   14.6129 C.ar    1  UNL1       -0.0003
     54 C          62.7264   83.4859   14.5187 C.ar    1  UNL1       -0.0042
@<TRIPOS>BOND
     1    21    22    1
     2    22    23    1
     3    22    16    1
     4    16    17   ar
     5    17    18   ar
     6    18    15    1
     7    15     7    1
     8     7     8   am
     9     8     9    2
    10     8    10   am
    11     6    10    1
    12     6     2    1
    13     2     3    2
    14     2     4   am
    15     4     1    1
    16     1    27    1
    17    27    28    1
    18    29    28    1
    19    29    41    1
    20    41    42    1
    21    42    43   ar
    22    43    44   ar
    23    44    45   ar
    24    45    46   ar
    25    46    47   ar
    26    29    30    1
    27    30    31   am
    28    31    32    2
    29    31    34    1
    30    34    35    1
    31    35    36    1
    32    36    37   ar
    33    37    38   ar
    34    38    39   ar
    35    39    40   ar
    36     1    48    1
    37    48    49    1
    38    49    50   ar
    39    50    51   ar
    40    51    52   ar
    41    52    53   ar
    42    53    54   ar
    43     6    24    1
    44    24    25    1
    45    24    26    1
    46     7    12    1
    47    12    13    1
    48    13    14    1
    49    18    19   ar
    50    19    20   ar
    51    20    16   ar
    52    47    42   ar
    53    40    36   ar
    54    54    49   ar
    55    14    12    1
    56    10    11    1
    57     4     5    1
    58    30    33    1
