@<TRIPOS>MOLECULE
*****
 24 25 0 0 0
SMALL
GASTEIGER

@<TRIPOS>ATOM
      1 C          63.7270   90.2898   14.9736 C.ar    1  UNL1        0.2628
      2 N          63.1055   90.0490   16.3174 N.ar    1  UNL1       -0.2035
      3 C          63.2125   88.5840   16.6218 C.ar    1  UNL1        0.1091
      4 C          63.9002   87.9195   15.4661 C.ar    1  UNL1        0.0527
      5 S          64.2182   88.9737   14.4475 S.2     1  UNL1       -0.0283
      6 C          64.2146   86.4576   15.3495 C.2     1  UNL1        0.0052
      7 C          63.9939   85.7443   14.0485 C.2     1  UNL1       -0.0064
      8 C          64.3083   84.2823   13.9318 C.3     1  UNL1        0.0939
      9 C          64.1112   83.3762   15.1108 C.3     1  UNL1        0.0262
     10 N          64.8200   83.7264   12.6359 N.am    1  UNL1       -0.3022
     11 C          63.8587   83.1768   11.6240 C.2     1  UNL1        0.2232
     12 C          64.3703   82.6209   10.3282 C.3     1  UNL1        0.0946
     13 O          62.3858   83.1831   11.9080 O.2     1  UNL1       -0.2751
     14 H          65.7867   83.7223   12.4495 H       1  UNL1        0.1497
     15 O          63.8379   91.6142   14.2781 O.3     1  UNL1       -0.4313
     16 C          67.1664   92.3396   11.3378 C.ar    1  UNL1        0.1388
     17 C          67.4781   92.1587   12.7938 C.ar    1  UNL1        0.0400
     18 C          66.3686   91.9169   13.7739 C.ar    1  UNL1        0.0407
     19 C          64.9474   91.8560   13.2980 C.ar    1  UNL1        0.1479
     20 C          64.6358   92.0369   11.8419 C.ar    1  UNL1        0.0407
     21 C          65.7453   92.2788   10.8619 C.ar    1  UNL1        0.0400
     22 O          68.2759   92.5815   10.3577 O.3     1  UNL1       -0.4755
     23 C          67.6863   94.8915    9.3252 C.3     1  UNL1        0.0512
     24 C          68.0382   93.4435    9.1534 C.3     1  UNL1        0.2055
@<TRIPOS>BOND
     1    23    24    1
     2    24    22    1
     3    22    16    1
     4    16    17   ar
     5    17    18   ar
     6    18    19   ar
     7    19    15    1
     8    15     1    1
     9     1     2   ar
    10     2     3   ar
    11     3     4   ar
    12     4     6    1
    13     6     7    2
    14     7     8    1
    15     8     9    1
    16     8    10    1
    17    10    11   am
    18    11    12    1
    19    11    13    2
    20     4     5   ar
    21    19    20   ar
    22    20    21   ar
    23    21    16   ar
    24     5     1   ar
    25    10    14    1
@<TRIPOS>MOLECULE
*****
 24 25 0 0 0
SMALL
GASTEIGER

@<TRIPOS>ATOM
      1 C          62.6288   89.4081   12.4532 C.ar    1  UNL1        0.2628
      2 N          61.3520   89.4596   11.6675 N.ar    1  UNL1       -0.2035
      3 C          61.1246   88.1056   11.0632 C.ar    1  UNL1        0.1091
      4 C          62.2609   87.2173   11.4754 C.ar    1  UNL1        0.0527
      5 S          63.1905   88.0222   12.3345 S.2     1  UNL1       -0.0283
      6 C          62.4367   85.7770   11.0954 C.2     1  UNL1        0.0052
      7 C          63.0455   84.8130   12.0701 C.2     1  UNL1       -0.0064
      8 C          63.2214   83.3726   11.6901 C.3     1  UNL1        0.0939
      9 C          64.3844   82.9582   10.8382 C.3     1  UNL1        0.0262
     10 N          62.2341   82.3466   12.1621 N.am    1  UNL1       -0.3022
     11 C          62.3096   81.8232   13.5658 C.2     1  UNL1        0.2232
     12 C          61.3224   80.7973   14.0379 C.3     1  UNL1        0.0946
     13 O          63.3724   82.3259   14.4975 O.2     1  UNL1       -0.2751
     14 H          61.5366   82.0168   11.5506 H       1  UNL1        0.1497
     15 O          63.2370   90.5430   13.2225 O.3     1  UNL1       -0.4313
     16 C          66.4019   93.1124   11.3168 C.ar    1  UNL1        0.1388
     17 C          65.2618   92.5919   10.4926 C.ar    1  UNL1        0.0400
     18 C          64.2068   91.7355   11.1279 C.ar    1  UNL1        0.0407
     19 C          64.2919   91.3995   12.5873 C.ar    1  UNL1        0.1479
     20 C          65.4320   91.9200   13.4114 C.ar    1  UNL1        0.0407
     21 C          66.4870   92.7764   12.7761 C.ar    1  UNL1        0.0400
     22 O          67.4568   93.9689   10.6815 O.3     1  UNL1       -0.4755
     23 C          68.6715   92.3774    9.0257 C.3     1  UNL1        0.0512
     24 C          67.9404   93.6590    9.2959 C.3     1  UNL1        0.2055
@<TRIPOS>BOND
     1    23    24    1
     2    24    22    1
     3    22    16    1
     4    16    17   ar
     5    17    18   ar
     6    18    19   ar
     7    19    15    1
     8    15     1    1
     9     1     2   ar
    10     2     3   ar
    11     3     4   ar
    12     4     6    1
    13     6     7    2
    14     7     8    1
    15     8     9    1
    16     8    10    1
    17    10    11   am
    18    11    12    1
    19    11    13    2
    20     4     5   ar
    21    19    20   ar
    22    20    21   ar
    23    21    16   ar
    24     5     1   ar
    25    10    14    1
@<TRIPOS>MOLECULE
*****
 24 25 0 0 0
SMALL
GASTEIGER

@<TRIPOS>ATOM
      1 C          61.3834   88.1395   10.0264 C.ar    1  UNL1        0.2628
      2 N          60.1891   88.9827   10.3620 N.ar    1  UNL1       -0.2035
      3 C          60.6826   90.2787   10.9341 C.ar    1  UNL1        0.1091
      4 C          62.1819   90.2364   10.9520 C.ar    1  UNL1        0.0527
      5 S          62.6151   88.9144   10.3910 S.2     1  UNL1       -0.0283
      6 C          63.0888   91.3249   11.4444 C.2     1  UNL1        0.0052
      7 C          64.2947   91.7163   10.6428 C.2     1  UNL1       -0.0064
      8 C          65.2017   92.8048   11.1351 C.3     1  UNL1        0.0939
      9 C          65.6040   92.8501   12.5795 C.3     1  UNL1        0.0262
     10 N          65.7064   93.8483   10.1829 N.am    1  UNL1       -0.3022
     11 C          67.1375   93.8245    9.7339 C.2     1  UNL1        0.2232
     12 C          67.6422   94.8679    8.7818 C.3     1  UNL1        0.0946
     13 O          68.0638   92.7573   10.2371 O.2     1  UNL1       -0.2751
     14 H          65.0985   94.5487    9.8527 H       1  UNL1        0.1497
     15 O          61.3518   86.7632    9.4308 O.3     1  UNL1       -0.4313
     16 C          63.6993   83.4315   11.3382 C.ar    1  UNL1        0.1388
     17 C          63.8129   83.6802    9.8634 C.ar    1  UNL1        0.0400
     18 C          63.0304   84.7908    9.2276 C.ar    1  UNL1        0.0407
     19 C          62.1343   85.6526   10.0666 C.ar    1  UNL1        0.1479
     20 C          62.0206   85.4039   11.5414 C.ar    1  UNL1        0.0407
     21 C          62.8031   84.2933   12.1772 C.ar    1  UNL1        0.0400
     22 O          64.4818   82.3209   11.9740 O.3     1  UNL1       -0.4755
     23 C          62.6736   80.6351   12.7730 C.3     1  UNL1        0.0512
     24 C          63.8648   81.4983   13.0661 C.3     1  UNL1        0.2055
@<TRIPOS>BOND
     1    23    24    1
     2    24    22    1
     3    22    16    1
     4    16    17   ar
     5    17    18   ar
     6    18    19   ar
     7    19    15    1
     8    15     1    1
     9     1     2   ar
    10     2     3   ar
    11     3     4   ar
    12     4     6    1
    13     6     7    2
    14     7     8    1
    15     8     9    1
    16     8    10    1
    17    10    11   am
    18    11    12    1
    19    11    13    2
    20     4     5   ar
    21    19    20   ar
    22    20    21   ar
    23    21    16   ar
    24     5     1   ar
    25    10    14    1
@<TRIPOS>MOLECULE
*****
 24 25 0 0 0
SMALL
GASTEIGER

@<TRIPOS>ATOM
      1 C          61.7176   89.1998   10.7683 C.ar    1  UNL1        0.2628
      2 N          60.9177   88.8995    9.5355 N.ar    1  UNL1       -0.2035
      3 C          61.0803   87.4417    9.2211 C.ar    1  UNL1        0.1091
      4 C          61.9807   86.8412   10.2598 C.ar    1  UNL1        0.0527
      5 S          62.3746   87.9277   11.2160 S.2     1  UNL1       -0.0283
      6 C          62.4116   85.4062   10.3299 C.2     1  UNL1        0.0052
      7 C          62.7478   84.7879   11.6545 C.2     1  UNL1       -0.0064
      8 C          63.1786   83.3529   11.7247 C.3     1  UNL1        0.0939
      9 C          64.5734   82.9682   11.3289 C.3     1  UNL1        0.0262
     10 N          62.2146   82.3023   12.1908 N.am    1  UNL1       -0.3022
     11 C          62.1997   81.8843   13.6313 C.2     1  UNL1        0.2232
     12 C          61.2357   80.8338   14.0975 C.3     1  UNL1        0.0946
     13 O          63.1488   82.5167   14.6057 O.2     1  UNL1       -0.2751
     14 H          61.5917   81.8873   11.5513 H       1  UNL1        0.1497
     15 O          61.8392   90.5374   11.4363 O.3     1  UNL1       -0.4313
     16 C          65.8988   92.1566   12.5077 C.ar    1  UNL1        0.1388
     17 C          65.3720   92.3162   11.1124 C.ar    1  UNL1        0.0400
     18 C          64.0188   91.7765   10.7552 C.ar    1  UNL1        0.0407
     19 C          63.1924   91.0771   11.7934 C.ar    1  UNL1        0.1479
     20 C          63.7192   90.9175   13.1887 C.ar    1  UNL1        0.0407
     21 C          65.0724   91.4572   13.5459 C.ar    1  UNL1        0.0400
     22 O          67.2520   92.6963   12.8648 O.3     1  UNL1       -0.4755
     23 C          67.9065   92.9695   15.3642 C.3     1  UNL1        0.0512
     24 C          67.9636   92.1896   14.0841 C.3     1  UNL1        0.2055
@<TRIPOS>BOND
     1    23    24    1
     2    24    22    1
     3    22    16    1
     4    16    17   ar
     5    17    18   ar
     6    18    19   ar
     7    19    15    1
     8    15     1    1
     9     1     2   ar
    10     2     3   ar
    11     3     4   ar
    12     4     6    1
    13     6     7    2
    14     7     8    1
    15     8     9    1
    16     8    10    1
    17    10    11   am
    18    11    12    1
    19    11    13    2
    20     4     5   ar
    21    19    20   ar
    22    20    21   ar
    23    21    16   ar
    24     5     1   ar
    25    10    14    1
@<TRIPOS>MOLECULE
*****
 24 25 0 0 0
SMALL
GASTEIGER

@<TRIPOS>ATOM
      1 C          61.4183   88.2550    9.8970 C.ar    1  UNL1        0.2628
      2 N          60.2324   89.1478   10.1131 N.ar    1  UNL1       -0.2035
      3 C          60.7106   90.3979   10.7905 C.ar    1  UNL1        0.1091
      4 C          62.1920   90.2777   10.9931 C.ar    1  UNL1        0.0527
      5 S          62.6294   88.9534   10.4409 S.2     1  UNL1       -0.0283
      6 C          63.0800   91.3019   11.6351 C.2     1  UNL1        0.0052
      7 C          64.3726   91.6900   10.9804 C.2     1  UNL1       -0.0064
      8 C          65.2607   92.7143   11.6223 C.3     1  UNL1        0.0939
      9 C          65.6732   93.9357   10.8556 C.3     1  UNL1        0.0262
     10 N          65.7363   92.5170   13.0313 N.am    1  UNL1       -0.3022
     11 C          67.1663   92.1490   13.2955 C.2     1  UNL1        0.2232
     12 C          67.6419   91.9517   14.7043 C.3     1  UNL1        0.0946
     13 O          68.1206   91.9782   12.1508 O.2     1  UNL1       -0.2751
     14 H          65.1100   92.6291   13.7825 H       1  UNL1        0.1497
     15 O          61.3970   86.9017    9.2505 O.3     1  UNL1       -0.4313
     16 C          63.6046   83.4683   11.1447 C.ar    1  UNL1        0.1388
     17 C          63.7927   83.7680    9.6871 C.ar    1  UNL1        0.0400
     18 C          63.0568   84.9125    9.0557 C.ar    1  UNL1        0.0407
     19 C          62.1329   85.7572    9.8819 C.ar    1  UNL1        0.1479
     20 C          61.9448   85.4574   11.3395 C.ar    1  UNL1        0.0407
     21 C          62.6807   84.3130   11.9709 C.ar    1  UNL1        0.0400
     22 O          64.3405   82.3238   11.7761 O.3     1  UNL1       -0.4755
     23 C          62.6634   80.6459   12.8353 C.3     1  UNL1        0.0512
     24 C          63.7731   81.6438   12.9867 C.3     1  UNL1        0.2055
@<TRIPOS>BOND
     1    23    24    1
     2    24    22    1
     3    22    16    1
     4    16    17   ar
     5    17    18   ar
     6    18    19   ar
     7    19    15    1
     8    15     1    1
     9     1     2   ar
    10     2     3   ar
    11     3     4   ar
    12     4     6    1
    13     6     7    2
    14     7     8    1
    15     8     9    1
    16     8    10    1
    17    10    11   am
    18    11    12    1
    19    11    13    2
    20     4     5   ar
    21    19    20   ar
    22    20    21   ar
    23    21    16   ar
    24     5     1   ar
    25    10    14    1
@<TRIPOS>MOLECULE
*****
 24 25 0 0 0
SMALL
GASTEIGER

@<TRIPOS>ATOM
      1 C          62.0353   89.8797   12.5554 C.ar    1  UNL1        0.2628
      2 N          62.7104   89.7104   13.8842 N.ar    1  UNL1       -0.2035
      3 C          63.9923   90.4889   13.8554 C.ar    1  UNL1        0.1091
      4 C          64.1095   91.1394   12.5089 C.ar    1  UNL1        0.0527
      5 S          62.9000   90.7629   11.7054 S.2     1  UNL1       -0.0283
      6 C          65.2379   92.0129   12.0469 C.2     1  UNL1        0.0052
      7 C          64.9850   93.0942   11.0385 C.2     1  UNL1       -0.0064
      8 C          66.1134   93.9678   10.5765 C.3     1  UNL1        0.0939
      9 C          66.3654   95.2853   11.2478 C.3     1  UNL1        0.0262
     10 N          66.9898   93.5239    9.4429 N.am    1  UNL1       -0.3022
     11 C          68.1583   92.6213    9.7075 C.2     1  UNL1        0.2232
     12 C          69.0348   92.1773    8.5740 C.3     1  UNL1        0.0946
     13 O          68.4503   92.1626   11.1055 O.2     1  UNL1       -0.2751
     14 H          66.7982   93.8249    8.5254 H       1  UNL1        0.1497
     15 O          60.7256   89.2726   12.1481 O.3     1  UNL1       -0.4313
     16 C          60.5155   86.5835    8.5461 C.ar    1  UNL1        0.1388
     17 C          60.9816   86.0378    9.8632 C.ar    1  UNL1        0.0400
     18 C          61.0516   86.9342   11.0639 C.ar    1  UNL1        0.0407
     19 C          60.6556   88.3762   10.9474 C.ar    1  UNL1        0.1479
     20 C          60.1895   88.9219    9.6303 C.ar    1  UNL1        0.0407
     21 C          60.1195   88.0255    8.4296 C.ar    1  UNL1        0.0400
     22 O          60.4455   85.6871    7.3454 O.3     1  UNL1       -0.4755
     23 C          62.9313   85.0178    7.6954 C.3     1  UNL1        0.0512
     24 C          61.6676   84.9459    6.8905 C.3     1  UNL1        0.2055
@<TRIPOS>BOND
     1    23    24    1
     2    24    22    1
     3    22    16    1
     4    16    17   ar
     5    17    18   ar
     6    18    19   ar
     7    19    15    1
     8    15     1    1
     9     1     2   ar
    10     2     3   ar
    11     3     4   ar
    12     4     6    1
    13     6     7    2
    14     7     8    1
    15     8     9    1
    16     8    10    1
    17    10    11   am
    18    11    12    1
    19    11    13    2
    20     4     5   ar
    21    19    20   ar
    22    20    21   ar
    23    21    16   ar
    24     5     1   ar
    25    10    14    1
@<TRIPOS>MOLECULE
*****
 24 25 0 0 0
SMALL
GASTEIGER

@<TRIPOS>ATOM
      1 C          61.7625   88.4964   10.3043 C.ar    1  UNL1        0.2628
      2 N          61.0462   87.6544    9.2904 N.ar    1  UNL1       -0.2035
      3 C          61.2438   86.2142    9.6609 C.ar    1  UNL1        0.1091
      4 C          62.0823   86.1663   10.9038 C.ar    1  UNL1        0.0527
      5 S          62.4028   87.5766   11.3014 S.2     1  UNL1       -0.0283
      6 C          62.5227   84.9258   11.6228 C.2     1  UNL1        0.0052
      7 C          63.2626   85.0352   12.9231 C.2     1  UNL1       -0.0064
      8 C          63.7031   83.7947   13.6422 C.3     1  UNL1        0.0939
      9 C          64.1957   83.8824   15.0563 C.3     1  UNL1        0.0262
     10 N          63.6511   82.4665   12.9470 N.am    1  UNL1       -0.3022
     11 C          62.6053   81.4609   13.3282 C.2     1  UNL1        0.2232
     12 C          62.5533   80.1328   12.6332 C.3     1  UNL1        0.0946
     13 O          61.6116   81.7837   14.4046 O.2     1  UNL1       -0.2751
     14 H          64.3033   82.2547   12.2406 H       1  UNL1        0.1497
     15 O          61.8272   89.9949   10.3186 O.3     1  UNL1       -0.4313
     16 C          65.1009   92.0842   12.5918 C.ar    1  UNL1        0.1388
     17 C          64.1462   91.1797   13.3133 C.ar    1  UNL1        0.0400
     18 C          63.0550   90.4833   12.5555 C.ar    1  UNL1        0.0407
     19 C          62.9184   90.6913   11.0763 C.ar    1  UNL1        0.1479
     20 C          63.8731   91.5957   10.3549 C.ar    1  UNL1        0.0407
     21 C          64.9644   92.2922   11.1126 C.ar    1  UNL1        0.0400
     22 O          66.1921   92.7806   13.3496 O.3     1  UNL1       -0.4755
     23 C          67.1051   92.9371   15.7769 C.3     1  UNL1        0.0512
     24 C          66.8067   92.1258   14.5510 C.3     1  UNL1        0.2055
@<TRIPOS>BOND
     1    23    24    1
     2    24    22    1
     3    22    16    1
     4    16    17   ar
     5    17    18   ar
     6    18    19   ar
     7    19    15    1
     8    15     1    1
     9     1     2   ar
    10     2     3   ar
    11     3     4   ar
    12     4     6    1
    13     6     7    2
    14     7     8    1
    15     8     9    1
    16     8    10    1
    17    10    11   am
    18    11    12    1
    19    11    13    2
    20     4     5   ar
    21    19    20   ar
    22    20    21   ar
    23    21    16   ar
    24     5     1   ar
    25    10    14    1
@<TRIPOS>MOLECULE
*****
 24 25 0 0 0
SMALL
GASTEIGER

@<TRIPOS>ATOM
      1 C          63.5689   84.6652   14.6307 C.ar    1  UNL1        0.2628
      2 N          63.7244   83.1793   14.4976 N.ar    1  UNL1       -0.2035
      3 C          63.4808   82.8143   13.0632 C.ar    1  UNL1        0.1091
      4 C          63.1748   84.0747   12.3097 C.ar    1  UNL1        0.0527
      5 S          63.2293   85.2187   13.2784 S.2     1  UNL1       -0.0283
      6 C          62.8683   84.1738   10.8448 C.2     1  UNL1        0.0052
      7 C          62.4081   85.4768   10.2613 C.2     1  UNL1       -0.0064
      8 C          62.1015   85.5760    8.7963 C.3     1  UNL1        0.0939
      9 C          63.0051   84.9201    7.7947 C.3     1  UNL1        0.0262
     10 N          60.8910   86.3312    8.3330 N.am    1  UNL1       -0.3022
     11 C          60.7159   87.7722    8.7110 C.2     1  UNL1        0.2232
     12 C          59.5056   88.5275    8.2477 C.3     1  UNL1        0.0946
     13 O          61.7513   88.4580    9.5525 O.2     1  UNL1       -0.2751
     14 H          60.2116   85.8812    7.7807 H       1  UNL1        0.1497
     15 O          63.7256   85.4585   15.8941 O.3     1  UNL1       -0.4313
     16 C          63.7944   89.9551   15.7335 C.ar    1  UNL1        0.1388
     17 C          64.4730   89.1559   14.6608 C.ar    1  UNL1        0.0400
     18 C          64.4500   87.6570   14.7143 C.ar    1  UNL1        0.0407
     19 C          63.7485   86.9574   15.8405 C.ar    1  UNL1        0.1479
     20 C          63.0699   87.7566   16.9132 C.ar    1  UNL1        0.0407
     21 C          63.0929   89.2555   16.8597 C.ar    1  UNL1        0.0400
     22 O          63.8173   91.4540   15.6800 O.3     1  UNL1       -0.4755
     23 C          66.1158   92.5522   16.1907 C.3     1  UNL1        0.0512
     24 C          65.0488   92.1689   15.2085 C.3     1  UNL1        0.2055
@<TRIPOS>BOND
     1    23    24    1
     2    24    22    1
     3    22    16    1
     4    16    17   ar
     5    17    18   ar
     6    18    19   ar
     7    19    15    1
     8    15     1    1
     9     1     2   ar
    10     2     3   ar
    11     3     4   ar
    12     4     6    1
    13     6     7    2
    14     7     8    1
    15     8     9    1
    16     8    10    1
    17    10    11   am
    18    11    12    1
    19    11    13    2
    20     4     5   ar
    21    19    20   ar
    22    20    21   ar
    23    21    16   ar
    24     5     1   ar
    25    10    14    1
@<TRIPOS>MOLECULE
*****
 24 25 0 0 0
SMALL
GASTEIGER

@<TRIPOS>ATOM
      1 C          63.8366   83.4818   11.4709 C.ar    1  UNL1        0.2628
      2 N          64.4616   83.0232   10.1868 N.ar    1  UNL1       -0.2035
      3 C          63.8803   83.8396    9.0707 C.ar    1  UNL1        0.1091
      4 C          62.8959   84.8029    9.6652 C.ar    1  UNL1        0.0527
      5 S          62.8690   84.5818   11.1485 S.2     1  UNL1       -0.0283
      6 C          62.0816   85.8103    8.9090 C.2     1  UNL1        0.0052
      7 C          60.8647   86.4179    9.5414 C.2     1  UNL1       -0.0064
      8 C          60.0503   87.4254    8.7853 C.3     1  UNL1        0.0939
      9 C          59.1721   86.9824    7.6528 C.3     1  UNL1        0.0262
     10 N          60.1141   88.8761    9.1618 N.am    1  UNL1       -0.3022
     11 C          60.0267   89.2813   10.6034 C.2     1  UNL1        0.2232
     12 C          60.0905   90.7319   10.9799 C.3     1  UNL1        0.0946
     13 O          59.8755   88.2359   11.6685 O.2     1  UNL1       -0.2751
     14 H          60.2133   89.5622    8.4627 H       1  UNL1        0.1497
     15 O          64.1281   82.9364   12.8375 O.3     1  UNL1       -0.4313
     16 C          63.4073   85.4825   16.4772 C.ar    1  UNL1        0.1388
     17 C          64.6340   85.6987   15.6416 C.ar    1  UNL1        0.0400
     18 C          64.8743   84.8500   14.4284 C.ar    1  UNL1        0.0407
     19 C          63.8878   83.7851   14.0507 C.ar    1  UNL1        0.1479
     20 C          62.6610   83.5688   14.8863 C.ar    1  UNL1        0.0407
     21 C          62.4208   84.4175   16.0996 C.ar    1  UNL1        0.0400
     22 O          63.1670   86.3312   17.6905 O.3     1  UNL1       -0.4755
     23 C          63.1878   88.7451   16.7299 C.3     1  UNL1        0.0512
     24 C          62.5226   87.6781   17.5479 C.3     1  UNL1        0.2055
@<TRIPOS>BOND
     1    23    24    1
     2    24    22    1
     3    22    16    1
     4    16    17   ar
     5    17    18   ar
     6    18    19   ar
     7    19    15    1
     8    15     1    1
     9     1     2   ar
    10     2     3   ar
    11     3     4   ar
    12     4     6    1
    13     6     7    2
    14     7     8    1
    15     8     9    1
    16     8    10    1
    17    10    11   am
    18    11    12    1
    19    11    13    2
    20     4     5   ar
    21    19    20   ar
    22    20    21   ar
    23    21    16   ar
    24     5     1   ar
    25    10    14    1
