@<TRIPOS>MOLECULE
*****
 38 42 0 0 0
SMALL
GASTEIGER

@<TRIPOS>ATOM
      1 C          64.1551   90.1826   14.9475 C.ar    1  UNL1        0.0503
      2 C          63.4419   90.0116   16.2560 C.ar    1  UNL1        0.0143
      3 C          63.1287   88.6359   16.7651 C.ar    1  UNL1       -0.0029
      4 C          63.5286   87.4312   15.9658 C.ar    1  UNL1       -0.0208
      5 C          64.2417   87.6023   14.6574 C.ar    1  UNL1       -0.0029
      6 C          64.5550   88.9780   14.1482 C.ar    1  UNL1        0.0143
      7 O          66.9708   91.2133   15.0455 O.2     1  UNL1       -0.2727
      8 C          65.8762   92.0737   14.4873 C.2     1  UNL1        0.2493
      9 N          64.4683   91.5584   14.4383 N.am    1  UNL1       -0.2823
     10 H          63.7499   92.1231   14.0719 H       1  UNL1        0.1549
     11 C          66.1894   93.4494   13.9780 C.3     1  UNL1        0.1957
     12 N          66.4876   93.6607   12.5232 N.ar    1  UNL1       -0.2690
     13 C          66.8063   92.4874   11.6448 C.ar    1  UNL1        0.1812
     14 N          67.1045   92.6987   10.1900 N.ar    1  UNL1       -0.2252
     15 C          67.0840   94.0835    9.6136 C.ar    1  UNL1        0.0876
     16 C          67.3822   94.2948    8.1589 C.ar    1  UNL1        0.0193
     17 C          67.3617   95.6795    7.5825 C.ar    1  UNL1        0.0015
     18 C          67.0429   96.8528    8.4610 C.ar    1  UNL1        0.0003
     19 C          66.7447   96.6415    9.9157 C.ar    1  UNL1        0.0063
     20 C          66.7653   95.2568   10.4921 C.ar    1  UNL1        0.0739
     21 C          66.4671   95.0454   11.9469 C.ar    1  UNL1        0.2638
     22 O          66.1483   96.2188   12.8253 O.2     1  UNL1       -0.2669
     23 C          63.2153   86.0555   16.4751 C.3     1  UNL1        0.0420
     24 C          63.0455   84.9194   15.5105 C.3     1  UNL1        0.0585
     25 C          62.7028   83.5034   15.8676 C.3     1  UNL1        0.0175
     26 C          62.6341   82.7086   14.5974 C.3     1  UNL1        0.0199
     27 C          62.9343   83.6334   13.4551 C.3     1  UNL1        0.0855
     28 N          63.1886   84.9997   14.0195 N.3     1  UNL1       -0.2971
     29 H          62.5108   85.6619   13.6419 H       1  UNL1        0.1233
     30 C          62.9734   83.2578   12.0034 C.3     1  UNL1        0.1470
     31 O          63.2437   81.8377   11.6032 O.3     1  UNL1       -0.3787
     32 H          63.2344   81.7671   10.6358 H       1  UNL1        0.2108
     33 C          62.7423   84.3023   10.9520 C.ar    1  UNL1        0.0055
     34 C          63.3759   84.1585    9.6000 C.ar    1  UNL1       -0.0019
     35 C          63.1449   85.2030    8.5485 C.ar    1  UNL1       -0.0002
     36 C          62.2802   86.3912    8.8490 C.ar    1  UNL1       -0.0000
     37 C          61.6466   86.5351   10.2010 C.ar    1  UNL1       -0.0002
     38 C          61.8777   85.4906   11.2525 C.ar    1  UNL1       -0.0019
@<TRIPOS>BOND
     1     7     8    2
     2     8    11    1
     3    11    12    1
     4    12    13   ar
     5    13    14   ar
     6    14    15   ar
     7    15    16   ar
     8    16    17   ar
     9    17    18   ar
    10    18    19   ar
    11    19    20   ar
    12    20    21   ar
    13    21    22    2
    14     8     9   am
    15     9     1    1
    16     1     2   ar
    17     2     3   ar
    18     3     4   ar
    19     4    23    1
    20    24    23    1
    21    24    25    1
    22    25    26    1
    23    27    26    1
    24    27    30    1
    25    30    31    1
    26    30    33    1
    27    33    34   ar
    28    34    35   ar
    29    35    36   ar
    30    36    37   ar
    31    37    38   ar
    32    27    28    1
    33     4     5   ar
    34     5     6   ar
    35    21    12   ar
    36     6     1   ar
    37    20    15   ar
    38    28    24    1
    39    38    33   ar
    40     9    10    1
    41    31    32    1
    42    28    29    1
@<TRIPOS>MOLECULE
*****
 38 42 0 0 0
SMALL
GASTEIGER

@<TRIPOS>ATOM
      1 C          59.6037   92.4272    4.1931 C.ar    1  UNL1        0.0503
      2 C          60.8001   91.6202    4.6023 C.ar    1  UNL1        0.0143
      3 C          60.6275   90.4143    5.4774 C.ar    1  UNL1       -0.0029
      4 C          59.2587   90.0154    5.9433 C.ar    1  UNL1       -0.0208
      5 C          58.0623   90.8224    5.5341 C.ar    1  UNL1       -0.0029
      6 C          58.2349   92.0283    4.6590 C.ar    1  UNL1        0.0143
      7 O          60.1185   92.0887    1.2570 O.2     1  UNL1       -0.2727
      8 C          60.0336   93.4639    1.8499 C.2     1  UNL1        0.2493
      9 N          59.7762   93.6332    3.3179 N.am    1  UNL1       -0.2823
     10 H          59.7205   94.5358    3.7070 H       1  UNL1        0.1549
     11 C          60.2061   94.6699    0.9748 C.3     1  UNL1        0.1957
     12 N          60.6114   94.5038   -0.4599 N.ar    1  UNL1       -0.2690
     13 C          59.6234   94.7773   -1.5549 C.ar    1  UNL1        0.1812
     14 N          60.0286   94.6112   -2.9895 N.ar    1  UNL1       -0.2252
     15 C          61.4220   94.1715   -3.3292 C.ar    1  UNL1        0.0876
     16 C          61.8272   94.0054   -4.7638 C.ar    1  UNL1        0.0193
     17 C          63.2205   93.5657   -5.1034 C.ar    1  UNL1        0.0015
     18 C          64.2085   93.2922   -4.0084 C.ar    1  UNL1        0.0003
     19 C          63.8033   93.4583   -2.5738 C.ar    1  UNL1        0.0063
     20 C          62.4100   93.8980   -2.2342 C.ar    1  UNL1        0.0739
     21 C          62.0047   94.0641   -0.7995 C.ar    1  UNL1        0.2638
     22 O          62.9927   93.7906    0.2954 O.2     1  UNL1       -0.2669
     23 C          59.0862   88.8094    6.8185 C.3     1  UNL1        0.0420
     24 C          59.8905   88.6750    8.0774 C.3     1  UNL1        0.0585
     25 C          60.7168   87.4873    8.4732 C.3     1  UNL1        0.0175
     26 C          61.3468   87.7830    9.8020 C.3     1  UNL1        0.0199
     27 C          60.9100   89.1535   10.2274 C.3     1  UNL1        0.0855
     28 N          60.0099   89.7048    9.1616 N.3     1  UNL1       -0.2971
     29 H          60.4090   90.5630    8.7814 H       1  UNL1        0.1233
     30 C          61.3039   89.8503   11.4960 C.3     1  UNL1        0.1470
     31 O          60.4064   89.7874   12.6961 O.3     1  UNL1       -0.3787
     32 H          60.8062   90.2866   13.4254 H       1  UNL1        0.2108
     33 C          62.5954   90.6100   11.5644 C.ar    1  UNL1        0.0055
     34 C          63.3478   90.6951   12.8593 C.ar    1  UNL1       -0.0019
     35 C          64.6393   91.4549   12.9278 C.ar    1  UNL1       -0.0002
     36 C          65.1786   92.1294   11.7014 C.ar    1  UNL1       -0.0000
     37 C          64.4262   92.0443   10.4065 C.ar    1  UNL1       -0.0002
     38 C          63.1347   91.2846   10.3380 C.ar    1  UNL1       -0.0019
@<TRIPOS>BOND
     1     7     8    2
     2     8    11    1
     3    11    12    1
     4    12    13   ar
     5    13    14   ar
     6    14    15   ar
     7    15    16   ar
     8    16    17   ar
     9    17    18   ar
    10    18    19   ar
    11    19    20   ar
    12    20    21   ar
    13    21    22    2
    14     8     9   am
    15     9     1    1
    16     1     2   ar
    17     2     3   ar
    18     3     4   ar
    19     4    23    1
    20    24    23    1
    21    24    25    1
    22    25    26    1
    23    27    26    1
    24    27    30    1
    25    30    31    1
    26    30    33    1
    27    33    34   ar
    28    34    35   ar
    29    35    36   ar
    30    36    37   ar
    31    37    38   ar
    32    27    28    1
    33     4     5   ar
    34     5     6   ar
    35    21    12   ar
    36     6     1   ar
    37    20    15   ar
    38    28    24    1
    39    38    33   ar
    40     9    10    1
    41    31    32    1
    42    28    29    1
@<TRIPOS>MOLECULE
*****
 38 42 0 0 0
SMALL
GASTEIGER

@<TRIPOS>ATOM
      1 C          61.2858   87.4600    9.4155 C.ar    1  UNL1        0.0503
      2 C          61.2553   88.9588    9.4669 C.ar    1  UNL1        0.0143
      3 C          60.3639   89.7232    8.5337 C.ar    1  UNL1       -0.0029
      4 C          59.5030   88.9888    7.5490 C.ar    1  UNL1       -0.0208
      5 C          59.5335   87.4900    7.4976 C.ar    1  UNL1       -0.0029
      6 C          60.4249   86.7256    8.4309 C.ar    1  UNL1        0.0143
      7 O          61.9260   88.5731   12.1269 O.2     1  UNL1       -0.2727
      8 C          62.4973   87.2521   11.7044 C.2     1  UNL1        0.2493
      9 N          62.1772   86.6955   10.3488 N.am    1  UNL1       -0.2823
     10 H          62.5522   85.8284   10.0716 H       1  UNL1        0.1549
     11 C          63.3887   86.4876   12.6376 C.3     1  UNL1        0.1957
     12 N          63.0425   85.0790   13.0200 N.ar    1  UNL1       -0.2690
     13 C          62.5293   84.7804   14.3975 C.ar    1  UNL1        0.1812
     14 N          62.1831   83.3719   14.7799 N.ar    1  UNL1       -0.2252
     15 C          62.3501   82.2619   13.7848 C.ar    1  UNL1        0.0876
     16 C          62.0038   80.8535   14.1671 C.ar    1  UNL1        0.0193
     17 C          62.1708   79.7436   13.1721 C.ar    1  UNL1        0.0015
     18 C          62.6840   80.0422   11.7946 C.ar    1  UNL1        0.0003
     19 C          63.0303   81.4507   11.4122 C.ar    1  UNL1        0.0063
     20 C          62.8633   82.5605   12.4073 C.ar    1  UNL1        0.0739
     21 C          63.2095   83.9691   12.0249 C.ar    1  UNL1        0.2638
     22 O          63.7227   84.2677   10.6474 O.2     1  UNL1       -0.2669
     23 C          58.6115   89.7533    6.6157 C.3     1  UNL1        0.0420
     24 C          59.2101   90.6539    5.5763 C.3     1  UNL1        0.0585
     25 C          58.5176   91.7975    4.8961 C.3     1  UNL1        0.0175
     26 C          59.4858   92.4195    3.9339 C.3     1  UNL1        0.0199
     27 C          60.7767   91.6602    4.0194 C.3     1  UNL1        0.0855
     28 N          60.6062   90.5691    5.0344 N.3     1  UNL1       -0.2971
     29 H          61.2792   90.6919    5.7910 H       1  UNL1        0.1233
     30 C          62.0196   91.9426    3.2287 C.3     1  UNL1        0.1470
     31 O          63.3492   91.4528    3.7210 O.3     1  UNL1       -0.3787
     32 H          64.0428   91.7184    3.0972 H       1  UNL1        0.2108
     33 C          61.9331   92.7147    1.9457 C.ar    1  UNL1        0.0055
     34 C          61.3103   92.0878    0.7336 C.ar    1  UNL1       -0.0019
     35 C          61.2237   92.8599   -0.5495 C.ar    1  UNL1       -0.0002
     36 C          61.7600   94.2590   -0.6205 C.ar    1  UNL1       -0.0000
     37 C          62.3829   94.8859    0.5916 C.ar    1  UNL1       -0.0002
     38 C          62.4694   94.1138    1.8746 C.ar    1  UNL1       -0.0019
@<TRIPOS>BOND
     1     7     8    2
     2     8    11    1
     3    11    12    1
     4    12    13   ar
     5    13    14   ar
     6    14    15   ar
     7    15    16   ar
     8    16    17   ar
     9    17    18   ar
    10    18    19   ar
    11    19    20   ar
    12    20    21   ar
    13    21    22    2
    14     8     9   am
    15     9     1    1
    16     1     2   ar
    17     2     3   ar
    18     3     4   ar
    19     4    23    1
    20    24    23    1
    21    24    25    1
    22    25    26    1
    23    27    26    1
    24    27    30    1
    25    30    31    1
    26    30    33    1
    27    33    34   ar
    28    34    35   ar
    29    35    36   ar
    30    36    37   ar
    31    37    38   ar
    32    27    28    1
    33     4     5   ar
    34     5     6   ar
    35    21    12   ar
    36     6     1   ar
    37    20    15   ar
    38    28    24    1
    39    38    33   ar
    40     9    10    1
    41    31    32    1
    42    28    29    1
@<TRIPOS>MOLECULE
*****
 38 42 0 0 0
SMALL
GASTEIGER

@<TRIPOS>ATOM
      1 C          59.2608   89.9783    5.9250 C.ar    1  UNL1        0.0503
      2 C          58.0794   90.8059    5.5133 C.ar    1  UNL1        0.0143
      3 C          58.2684   91.9809    4.6004 C.ar    1  UNL1       -0.0029
      4 C          59.6388   92.3284    4.0991 C.ar    1  UNL1       -0.0208
      5 C          60.8202   91.5009    4.5108 C.ar    1  UNL1       -0.0029
      6 C          60.6312   90.3258    5.4237 C.ar    1  UNL1        0.0143
      7 O          60.7625   89.8367    8.5182 O.2     1  UNL1       -0.2727
      8 C          59.8227   88.7324    8.1345 C.2     1  UNL1        0.2493
      9 N          59.0718   88.8032    6.8379 N.am    1  UNL1       -0.2823
     10 H          58.4550   88.0784    6.5861 H       1  UNL1        0.1549
     11 C          59.6337   87.5574    9.0474 C.3     1  UNL1        0.1957
     12 N          60.7399   86.5600    9.2250 N.ar    1  UNL1       -0.2690
     13 C          61.3403   85.8848    8.0276 C.ar    1  UNL1        0.1812
     14 N          62.4465   84.8874    8.2051 N.ar    1  UNL1       -0.2252
     15 C          62.9524   84.5652    9.5800 C.ar    1  UNL1        0.0876
     16 C          64.0586   83.5679    9.7575 C.ar    1  UNL1        0.0193
     17 C          64.5644   83.2457   11.1324 C.ar    1  UNL1        0.0015
     18 C          63.9641   83.9209   12.3298 C.ar    1  UNL1        0.0003
     19 C          62.8579   84.9182   12.1523 C.ar    1  UNL1        0.0063
     20 C          62.3520   85.2404   10.7774 C.ar    1  UNL1        0.0739
     21 C          61.2458   86.2378   10.5998 C.ar    1  UNL1        0.2638
     22 O          60.6454   86.9130   11.7972 O.2     1  UNL1       -0.2669
     23 C          59.8278   93.5035    3.1861 C.3     1  UNL1        0.0420
     24 C          60.0798   93.2843    1.7238 C.3     1  UNL1        0.0585
     25 C          61.2254   92.5181    1.1318 C.3     1  UNL1        0.0175
     26 C          61.0841   92.5530   -0.3611 C.3     1  UNL1        0.0199
     27 C          59.8512   93.3408   -0.6918 C.3     1  UNL1        0.0855
     28 N          59.2305   93.7928    0.5968 N.3     1  UNL1       -0.2971
     29 H          58.2864   93.4154    0.6773 H       1  UNL1        0.1233
     30 C          59.3305   93.6265   -2.0692 C.3     1  UNL1        0.1470
     31 O          59.9544   94.7107   -2.8970 O.3     1  UNL1       -0.3787
     32 H          59.5027   94.7639   -3.7537 H       1  UNL1        0.2108
     33 C          58.1858   92.8281   -2.6188 C.ar    1  UNL1        0.0055
     34 C          58.1321   92.5036   -4.0823 C.ar    1  UNL1       -0.0019
     35 C          56.9874   91.7052   -4.6320 C.ar    1  UNL1       -0.0002
     36 C          55.8964   91.2312   -3.7182 C.ar    1  UNL1       -0.0000
     37 C          55.9502   91.5556   -2.2546 C.ar    1  UNL1       -0.0002
     38 C          57.0948   92.3541   -1.7049 C.ar    1  UNL1       -0.0019
@<TRIPOS>BOND
     1     7     8    2
     2     8    11    1
     3    11    12    1
     4    12    13   ar
     5    13    14   ar
     6    14    15   ar
     7    15    16   ar
     8    16    17   ar
     9    17    18   ar
    10    18    19   ar
    11    19    20   ar
    12    20    21   ar
    13    21    22    2
    14     8     9   am
    15     9     1    1
    16     1     2   ar
    17     2     3   ar
    18     3     4   ar
    19     4    23    1
    20    24    23    1
    21    24    25    1
    22    25    26    1
    23    27    26    1
    24    27    30    1
    25    30    31    1
    26    30    33    1
    27    33    34   ar
    28    34    35   ar
    29    35    36   ar
    30    36    37   ar
    31    37    38   ar
    32    27    28    1
    33     4     5   ar
    34     5     6   ar
    35    21    12   ar
    36     6     1   ar
    37    20    15   ar
    38    28    24    1
    39    38    33   ar
    40     9    10    1
    41    31    32    1
    42    28    29    1
@<TRIPOS>MOLECULE
*****
 38 42 0 0 0
SMALL
GASTEIGER

@<TRIPOS>ATOM
      1 C          63.4506   87.1208   15.5599 C.ar    1  UNL1        0.0503
      2 C          63.0134   87.9013   16.7639 C.ar    1  UNL1        0.0143
      3 C          63.2778   89.3759   16.8383 C.ar    1  UNL1       -0.0029
      4 C          63.9794   90.0700   15.7087 C.ar    1  UNL1       -0.0208
      5 C          64.4166   89.2895   14.5047 C.ar    1  UNL1       -0.0029
      6 C          64.1522   87.8149   14.4303 C.ar    1  UNL1        0.0143
      7 O          65.5921   85.2603   14.5838 O.2     1  UNL1       -0.2727
      8 C          64.2570   84.7159   14.9975 C.2     1  UNL1        0.2493
      9 N          63.1863   85.6461   15.4855 N.am    1  UNL1       -0.2823
     10 H          62.3100   85.2888   15.7570 H       1  UNL1        0.1549
     11 C          63.9926   83.2413   14.9231 C.3     1  UNL1        0.1957
     12 N          63.7950   82.5810   13.5907 N.ar    1  UNL1       -0.2690
     13 C          64.0848   83.3376   12.3284 C.ar    1  UNL1        0.1812
     14 N          63.8872   82.6774   10.9961 N.ar    1  UNL1       -0.2252
     15 C          63.3997   81.2605   10.9261 C.ar    1  UNL1        0.0876
     16 C          63.2021   80.6003    9.5938 C.ar    1  UNL1        0.0193
     17 C          62.7146   79.1835    9.5239 C.ar    1  UNL1        0.0015
     18 C          62.4248   78.4268   10.7862 C.ar    1  UNL1        0.0003
     19 C          62.6224   79.0871   12.1185 C.ar    1  UNL1        0.0063
     20 C          63.1099   80.5039   12.1885 C.ar    1  UNL1        0.0739
     21 C          63.3075   81.1642   13.5208 C.ar    1  UNL1        0.2638
     22 O          63.0176   80.4076   14.7832 O.2     1  UNL1       -0.2669
     23 C          64.2437   91.5447   15.7831 C.3     1  UNL1        0.0420
     24 C          65.3520   92.1498   14.9734 C.3     1  UNL1        0.0585
     25 C          66.5597   92.8528   15.5185 C.3     1  UNL1        0.0175
     26 C          67.4013   93.2956   14.3585 C.3     1  UNL1        0.0199
     27 C          66.7137   92.8662   13.0963 C.3     1  UNL1        0.0855
     28 N          65.4472   92.1580   13.4764 N.3     1  UNL1       -0.2971
     29 H          65.4673   91.2005   13.1256 H       1  UNL1        0.1233
     30 C          67.2061   93.1033   11.6995 C.3     1  UNL1        0.1470
     31 O          68.0900   92.0906   11.0338 O.3     1  UNL1       -0.3787
     32 H          68.3161   92.3957   10.1412 H       1  UNL1        0.2108
     33 C          66.8147   94.3531   10.9683 C.ar    1  UNL1        0.0055
     34 C          67.2255   94.5453    9.5385 C.ar    1  UNL1       -0.0019
     35 C          66.8341   95.7951    8.8072 C.ar    1  UNL1       -0.0002
     36 C          66.0320   96.8527    9.5057 C.ar    1  UNL1       -0.0000
     37 C          65.6212   96.6605   10.9355 C.ar    1  UNL1       -0.0002
     38 C          66.0126   95.4107   11.6668 C.ar    1  UNL1       -0.0019
@<TRIPOS>BOND
     1     7     8    2
     2     8    11    1
     3    11    12    1
     4    12    13   ar
     5    13    14   ar
     6    14    15   ar
     7    15    16   ar
     8    16    17   ar
     9    17    18   ar
    10    18    19   ar
    11    19    20   ar
    12    20    21   ar
    13    21    22    2
    14     8     9   am
    15     9     1    1
    16     1     2   ar
    17     2     3   ar
    18     3     4   ar
    19     4    23    1
    20    24    23    1
    21    24    25    1
    22    25    26    1
    23    27    26    1
    24    27    30    1
    25    30    31    1
    26    30    33    1
    27    33    34   ar
    28    34    35   ar
    29    35    36   ar
    30    36    37   ar
    31    37    38   ar
    32    27    28    1
    33     4     5   ar
    34     5     6   ar
    35    21    12   ar
    36     6     1   ar
    37    20    15   ar
    38    28    24    1
    39    38    33   ar
    40     9    10    1
    41    31    32    1
    42    28    29    1
@<TRIPOS>MOLECULE
*****
 38 42 0 0 0
SMALL
GASTEIGER

@<TRIPOS>ATOM
      1 C          60.5928   87.6697    9.1658 C.ar    1  UNL1        0.0503
      2 C          60.6896   89.1654    9.2256 C.ar    1  UNL1        0.0143
      3 C          60.0304   90.0024    8.1697 C.ar    1  UNL1       -0.0029
      4 C          59.2745   89.3437    7.0541 C.ar    1  UNL1       -0.0208
      5 C          59.1777   87.8481    6.9943 C.ar    1  UNL1       -0.0029
      6 C          59.8369   87.0111    8.0501 C.ar    1  UNL1        0.0143
      7 O          62.6795   88.8771   10.9513 O.2     1  UNL1       -0.2727
      8 C          62.2953   87.4364   11.1145 C.2     1  UNL1        0.2493
      9 N          61.2519   86.8327   10.2218 N.am    1  UNL1       -0.2823
     10 H          60.9998   85.8871   10.3288 H       1  UNL1        0.1549
     11 C          62.9544   86.5993   12.1703 C.3     1  UNL1        0.1957
     12 N          62.9420   85.1035   12.0578 N.ar    1  UNL1       -0.2690
     13 C          63.3513   84.4446   10.7739 C.ar    1  UNL1        0.1812
     14 N          63.3389   82.9489   10.6613 N.ar    1  UNL1       -0.2252
     15 C          62.9172   82.1121   11.8326 C.ar    1  UNL1        0.0876
     16 C          62.9048   80.6164   11.7200 C.ar    1  UNL1        0.0193
     17 C          62.4831   79.7796   12.8912 C.ar    1  UNL1        0.0015
     18 C          62.0737   80.4385   14.1751 C.ar    1  UNL1        0.0003
     19 C          62.0861   81.9342   14.2877 C.ar    1  UNL1        0.0063
     20 C          62.5078   82.7710   13.1164 C.ar    1  UNL1        0.0739
     21 C          62.5202   84.2667   13.2290 C.ar    1  UNL1        0.2638
     22 O          62.1109   84.9256   14.5129 O.2     1  UNL1       -0.2669
     23 C          58.6154   90.1808    5.9981 C.3     1  UNL1        0.0420
     24 C          59.4506   91.0131    5.0711 C.3     1  UNL1        0.0585
     25 C          60.9263   90.8683    4.8441 C.3     1  UNL1        0.0175
     26 C          61.3446   91.9021    3.8410 C.3     1  UNL1        0.0199
     27 C          60.1275   92.6859    3.4480 C.3     1  UNL1        0.0855
     28 N          58.9570   92.1365    4.2083 N.3     1  UNL1       -0.2971
     29 H          58.2533   91.7890    3.5567 H       1  UNL1        0.1233
     30 C          60.0879   93.8200    2.4671 C.3     1  UNL1        0.1470
     31 O          59.9886   95.2337    2.9586 O.3     1  UNL1       -0.3787
     32 H          59.9743   95.8392    2.2009 H       1  UNL1        0.2108
     33 C          60.1476   93.5404    0.9946 C.ar    1  UNL1        0.0055
     34 C          61.4718   93.3140    0.3274 C.ar    1  UNL1       -0.0019
     35 C          61.5316   93.0345   -1.1451 C.ar    1  UNL1       -0.0002
     36 C          60.2672   92.9813   -1.9504 C.ar    1  UNL1       -0.0000
     37 C          58.9430   93.2077   -1.2831 C.ar    1  UNL1       -0.0002
     38 C          58.8832   93.4873    0.1894 C.ar    1  UNL1       -0.0019
@<TRIPOS>BOND
     1     7     8    2
     2     8    11    1
     3    11    12    1
     4    12    13   ar
     5    13    14   ar
     6    14    15   ar
     7    15    16   ar
     8    16    17   ar
     9    17    18   ar
    10    18    19   ar
    11    19    20   ar
    12    20    21   ar
    13    21    22    2
    14     8     9   am
    15     9     1    1
    16     1     2   ar
    17     2     3   ar
    18     3     4   ar
    19     4    23    1
    20    24    23    1
    21    24    25    1
    22    25    26    1
    23    27    26    1
    24    27    30    1
    25    30    31    1
    26    30    33    1
    27    33    34   ar
    28    34    35   ar
    29    35    36   ar
    30    36    37   ar
    31    37    38   ar
    32    27    28    1
    33     4     5   ar
    34     5     6   ar
    35    21    12   ar
    36     6     1   ar
    37    20    15   ar
    38    28    24    1
    39    38    33   ar
    40     9    10    1
    41    31    32    1
    42    28    29    1
@<TRIPOS>MOLECULE
*****
 38 42 0 0 0
SMALL
GASTEIGER

@<TRIPOS>ATOM
      1 C          60.7427   88.0849    8.8925 C.ar    1  UNL1        0.0503
      2 C          61.4330   86.9974    8.1238 C.ar    1  UNL1        0.0143
      3 C          61.8994   85.7594    8.8306 C.ar    1  UNL1       -0.0029
      4 C          61.6756   85.6088   10.3062 C.ar    1  UNL1       -0.0208
      5 C          60.9853   86.6963   11.0749 C.ar    1  UNL1       -0.0029
      6 C          60.5189   87.9343   10.3680 C.ar    1  UNL1        0.0143
      7 O          59.0836   87.8562    6.4035 O.2     1  UNL1       -0.2727
      8 C          59.4467   89.2086    6.9411 C.2     1  UNL1        0.2493
      9 N          60.2763   89.3230    8.1856 N.am    1  UNL1       -0.2823
     10 H          60.5146   90.2106    8.5385 H       1  UNL1        0.1549
     11 C          58.9803   90.4467    6.2343 C.3     1  UNL1        0.1957
     12 N          59.8256   91.0586    5.1568 N.ar    1  UNL1       -0.2690
     13 C          61.2951   90.7638    5.0981 C.ar    1  UNL1        0.1812
     14 N          62.1404   91.3757    4.0206 N.ar    1  UNL1       -0.2252
     15 C          61.5161   92.2825    3.0017 C.ar    1  UNL1        0.0876
     16 C          62.3613   92.8944    1.9241 C.ar    1  UNL1        0.0193
     17 C          61.7370   93.8011    0.9053 C.ar    1  UNL1        0.0015
     18 C          60.2674   94.0959    0.9640 C.ar    1  UNL1        0.0003
     19 C          59.4222   93.4840    2.0415 C.ar    1  UNL1        0.0063
     20 C          60.0465   92.5773    3.0603 C.ar    1  UNL1        0.0739
     21 C          59.2012   91.9653    4.1379 C.ar    1  UNL1        0.2638
     22 O          57.7316   92.2601    4.1966 O.2     1  UNL1       -0.2669
     23 C          62.1421   84.3707   11.0130 C.3     1  UNL1        0.0420
     24 C          62.9779   84.4850   12.2533 C.3     1  UNL1        0.0585
     25 C          64.1658   83.6362   12.5972 C.3     1  UNL1        0.0175
     26 C          64.6947   84.0948   13.9238 C.3     1  UNL1        0.0199
     27 C          63.8337   85.2271   14.3998 C.3     1  UNL1        0.0855
     28 N          62.7727   85.4683   13.3673 N.3     1  UNL1       -0.2971
     29 H          62.8494   86.4197   13.0078 H       1  UNL1        0.1233
     30 C          64.0038   85.9852   15.6829 C.3     1  UNL1        0.1470
     31 O          64.2751   85.2466   16.9601 O.3     1  UNL1       -0.3787
     32 H          64.3578   85.8810   17.6891 H       1  UNL1        0.2108
     33 C          63.9028   87.4817   15.6890 C.ar    1  UNL1        0.0055
     34 C          63.1970   88.1811   16.8127 C.ar    1  UNL1       -0.0019
     35 C          63.0959   89.6777   16.8189 C.ar    1  UNL1       -0.0002
     36 C          63.7006   90.4748   15.7013 C.ar    1  UNL1       -0.0000
     37 C          64.4063   89.7754   14.5776 C.ar    1  UNL1       -0.0002
     38 C          64.5074   88.2788   14.5715 C.ar    1  UNL1       -0.0019
@<TRIPOS>BOND
     1     7     8    2
     2     8    11    1
     3    11    12    1
     4    12    13   ar
     5    13    14   ar
     6    14    15   ar
     7    15    16   ar
     8    16    17   ar
     9    17    18   ar
    10    18    19   ar
    11    19    20   ar
    12    20    21   ar
    13    21    22    2
    14     8     9   am
    15     9     1    1
    16     1     2   ar
    17     2     3   ar
    18     3     4   ar
    19     4    23    1
    20    24    23    1
    21    24    25    1
    22    25    26    1
    23    27    26    1
    24    27    30    1
    25    30    31    1
    26    30    33    1
    27    33    34   ar
    28    34    35   ar
    29    35    36   ar
    30    36    37   ar
    31    37    38   ar
    32    27    28    1
    33     4     5   ar
    34     5     6   ar
    35    21    12   ar
    36     6     1   ar
    37    20    15   ar
    38    28    24    1
    39    38    33   ar
    40     9    10    1
    41    31    32    1
    42    28    29    1
@<TRIPOS>MOLECULE
*****
 38 42 0 0 0
SMALL
GASTEIGER

@<TRIPOS>ATOM
      1 C          63.8395   87.2098   15.7337 C.ar    1  UNL1        0.0503
      2 C          63.2114   87.9513   16.8763 C.ar    1  UNL1        0.0143
      3 C          63.2761   89.4491   16.9244 C.ar    1  UNL1       -0.0029
      4 C          63.9688   90.2054   15.8298 C.ar    1  UNL1       -0.0208
      5 C          64.5968   89.4640   14.6872 C.ar    1  UNL1       -0.0029
      6 C          64.5322   87.9662   14.6391 C.ar    1  UNL1        0.0143
      7 O          61.3859   85.7823   16.7044 O.2     1  UNL1       -0.2727
      8 C          62.5481   84.9982   16.1709 C.2     1  UNL1        0.2493
      9 N          63.7748   85.7120   15.6855 N.am    1  UNL1       -0.2823
     10 H          64.5376   85.1973   15.3353 H       1  UNL1        0.1549
     11 C          62.4835   83.5004   16.1227 C.3     1  UNL1        0.1957
     12 N          62.5344   82.7895   14.8028 N.ar    1  UNL1       -0.2690
     13 C          61.6166   81.6331   14.5379 C.ar    1  UNL1        0.1812
     14 N          61.6674   80.9222   13.2181 N.ar    1  UNL1       -0.2252
     15 C          62.6361   81.3678   12.1630 C.ar    1  UNL1        0.0876
     16 C          62.6870   80.6569   10.8432 C.ar    1  UNL1        0.0193
     17 C          63.6557   81.1025    9.7882 C.ar    1  UNL1        0.0015
     18 C          64.5735   82.2590   10.0531 C.ar    1  UNL1        0.0003
     19 C          64.5226   82.9699   11.3729 C.ar    1  UNL1        0.0063
     20 C          63.5540   82.5243   12.4279 C.ar    1  UNL1        0.0739
     21 C          63.5031   83.2351   13.7478 C.ar    1  UNL1        0.2638
     22 O          64.4209   84.3916   14.0127 O.2     1  UNL1       -0.2669
     23 C          64.0334   91.7033   15.8780 C.3     1  UNL1        0.0420
     24 C          65.0733   92.4351   15.0823 C.3     1  UNL1        0.0585
     25 C          66.5056   92.6381   15.4787 C.3     1  UNL1        0.0175
     26 C          67.1809   93.4208   14.3918 C.3     1  UNL1        0.0199
     27 C          66.1659   93.7016   13.3236 C.3     1  UNL1        0.0855
     28 N          64.8633   93.0924   13.7504 N.3     1  UNL1       -0.2971
     29 H          64.5648   92.3984   13.0651 H       1  UNL1        0.1233
     30 C          66.4106   94.4587   12.0521 C.3     1  UNL1        0.1470
     31 O          65.9397   95.8769   11.9211 O.3     1  UNL1       -0.3787
     32 H          66.1762   96.2164   11.0437 H       1  UNL1        0.2108
     33 C          67.1261   93.7977   10.9115 C.ar    1  UNL1        0.0055
     34 C          67.4358   94.5772    9.6678 C.ar    1  UNL1       -0.0019
     35 C          68.1514   93.9162    8.5272 C.ar    1  UNL1       -0.0002
     36 C          68.5572   92.4759    8.6302 C.ar    1  UNL1       -0.0000
     37 C          68.2475   91.6965    9.8738 C.ar    1  UNL1       -0.0002
     38 C          67.5320   92.3574   11.0145 C.ar    1  UNL1       -0.0019
@<TRIPOS>BOND
     1     7     8    2
     2     8    11    1
     3    11    12    1
     4    12    13   ar
     5    13    14   ar
     6    14    15   ar
     7    15    16   ar
     8    16    17   ar
     9    17    18   ar
    10    18    19   ar
    11    19    20   ar
    12    20    21   ar
    13    21    22    2
    14     8     9   am
    15     9     1    1
    16     1     2   ar
    17     2     3   ar
    18     3     4   ar
    19     4    23    1
    20    24    23    1
    21    24    25    1
    22    25    26    1
    23    27    26    1
    24    27    30    1
    25    30    31    1
    26    30    33    1
    27    33    34   ar
    28    34    35   ar
    29    35    36   ar
    30    36    37   ar
    31    37    38   ar
    32    27    28    1
    33     4     5   ar
    34     5     6   ar
    35    21    12   ar
    36     6     1   ar
    37    20    15   ar
    38    28    24    1
    39    38    33   ar
    40     9    10    1
    41    31    32    1
    42    28    29    1
