@<TRIPOS>MOLECULE
*****
 56 61 0 0 0
SMALL
GASTEIGER

@<TRIPOS>ATOM
      1 N          62.8530   84.0647    9.4621 N.3     1  UNL1       -0.1862
      2 C          62.1595   84.1357    8.1339 C.3     1  UNL1        0.1775
      3 C          61.3510   85.3467    7.7738 C.2     1  UNL1        0.2452
      4 O          60.6574   85.4176    6.4456 O.2     1  UNL1       -0.2732
      5 N          61.2360   86.4868    8.7417 N.am    1  UNL1       -0.2541
      6 C          60.4274   87.6978    8.3816 C.3     1  UNL1        0.1577
      7 C          60.3125   88.8378    9.3496 C.2     1  UNL1        0.2445
      8 O          59.5039   90.0489    8.9894 O.2     1  UNL1       -0.2731
      9 N          61.0060   88.7669   10.6778 N.am    1  UNL1       -0.2705
     10 C          61.8145   87.5559   11.0379 C.3     1  UNL1        0.1359
     11 C          61.9295   86.4158   10.0699 C.3     1  UNL1        0.1908
     12 N          62.7380   85.2047   10.4300 N.am    1  UNL1       -0.1863
     13 C          63.4315   85.1338   11.7582 C.2     1  UNL1        0.3191
     14 O          63.3165   86.2739   12.7262 O.2     1  UNL1       -0.2512
     15 N          64.2400   83.9228   12.1184 N.am    1  UNL1       -0.2836
     16 H          64.3155   83.1745   11.4830 H       1  UNL1        0.1513
     17 C          63.6615   82.8537    9.8222 C.3     1  UNL1        0.1188
     18 C          62.8111   81.2238   11.6580 C.2     1  UNL1       -0.0034
     19 C          62.9716   81.5793   10.2096 C.2     1  UNL1       -0.0071
     20 C          59.7339   87.7688    7.0535 C.3     1  UNL1        0.0556
     21 C          59.5736   89.0895    6.3607 C.ar    1  UNL1       -0.0198
     22 C          58.2140   89.7103    6.2349 C.ar    1  UNL1       -0.0011
     23 C          58.0537   91.0310    5.5421 C.ar    1  UNL1        0.0363
     24 C          59.2531   91.7310    4.9752 C.ar    1  UNL1        0.1337
     25 O          59.0928   93.0518    4.2824 O.3     1  UNL1       -0.5055
     26 C          60.6128   91.1102    5.1010 C.ar    1  UNL1        0.0363
     27 C          60.7731   89.7895    5.7937 C.ar    1  UNL1       -0.0011
     28 H          58.2434   93.4395    4.2038 H       1  UNL1        0.2922
     29 C          60.8910   89.9070   11.6457 C.3     1  UNL1        0.1217
     30 C          62.0272   90.2207   12.5735 C.ar    1  UNL1        0.0135
     31 C          61.9769   89.7650   14.0017 C.ar    1  UNL1       -0.0012
     32 C          63.1131   90.0787   14.9295 C.ar    1  UNL1       -0.0002
     33 C          64.2995   90.8480   14.4290 C.ar    1  UNL1        0.0016
     34 C          64.3498   91.3036   13.0008 C.ar    1  UNL1        0.0214
     35 C          65.3799   92.0732   12.2284 C.ar    1  UNL1        0.0719
     36 C          64.8805   92.2351   10.8233 C.ar    1  UNL1        0.0805
     37 N          63.5417   91.5656   10.7273 N.ar    1  UNL1       -0.3241
     38 C          62.6817   91.4858    9.5008 C.3     1  UNL1        0.1305
     39 C          63.2136   90.9900   12.0730 C.ar    1  UNL1        0.0577
     40 C          66.6812   92.5901   12.7667 C.2     1  UNL1        0.2473
     41 O          66.9428   94.0665   12.8066 O.2     1  UNL1       -0.2701
     42 N          67.7208   91.6304   13.2650 N.am    1  UNL1       -0.3008
     43 H          67.5491   90.6614   13.2388 H       1  UNL1        0.1497
     44 C          69.0220   92.1472   13.8033 C.3     1  UNL1        0.0898
     45 C          69.0735   92.7782   15.1632 C.3     1  UNL1        0.0238
     46 C          68.1032   92.3522   16.2248 C.3     1  UNL1        0.0338
     47 C          66.6975   92.8754   16.2096 C.3     1  UNL1        0.1423
     48 O          65.7084   92.3978   17.2310 O.3     1  UNL1       -0.3511
     49 C          64.2590   92.7608   17.0986 C.3     1  UNL1        0.1741
     50 C          64.9335   83.8518   13.4465 C.3     1  UNL1        0.1177
     51 C          64.3340   84.5295   14.6429 C.ar    1  UNL1       -0.0025
     52 C          64.8811   85.8449   15.1123 C.ar    1  UNL1       -0.0026
     53 C          64.2816   86.5226   16.3086 C.ar    1  UNL1       -0.0003
     54 C          63.1349   85.8849   17.0356 C.ar    1  UNL1       -0.0000
     55 C          62.5877   84.5695   16.5661 C.ar    1  UNL1       -0.0003
     56 C          63.1872   83.8918   15.3698 C.ar    1  UNL1       -0.0026
@<TRIPOS>BOND
     1    18    19    2
     2    19    17    1
     3    17     1    1
     4     1     2    1
     5     2     3    1
     6     3     4    2
     7     3     5   am
     8     5     6    1
     9     6    20    1
    10    20    21    1
    11    21    22   ar
    12    22    23   ar
    13    23    24   ar
    14    24    25    1
    15    24    26   ar
    16    26    27   ar
    17     6     7    1
    18     7     8    2
    19     7     9   am
    20     9    29    1
    21    29    30    1
    22    30    31   ar
    23    31    32   ar
    24    32    33   ar
    25    33    34   ar
    26    34    35   ar
    27    35    40    1
    28    40    41    2
    29    40    42   am
    30    42    44    1
    31    44    45    1
    32    45    46    1
    33    46    47    1
    34    47    48    1
    35    48    49    1
    36    35    36   ar
    37    36    37   ar
    38    37    38    1
    39    37    39   ar
    40     9    10    1
    41    11    10    1
    42    11    12    1
    43    12    13   am
    44    13    14    2
    45    13    15   am
    46    15    50    1
    47    50    51    1
    48    51    52   ar
    49    52    53   ar
    50    53    54   ar
    51    54    55   ar
    52    55    56   ar
    53    12     1    1
    54    56    51   ar
    55    11     5    1
    56    27    21   ar
    57    39    30   ar
    58    39    34   ar
    59    25    28    1
    60    42    43    1
    61    15    16    1
@<TRIPOS>MOLECULE
*****
 56 61 0 0 0
SMALL
GASTEIGER

@<TRIPOS>ATOM
      1 N          59.1953   92.8664    0.9541 N.3     1  UNL1       -0.1862
      2 C          57.7673   92.7076    0.5237 C.3     1  UNL1        0.1775
      3 C          57.3120   93.2744   -0.7884 C.2     1  UNL1        0.2452
      4 O          55.8838   93.1156   -1.2188 O.2     1  UNL1       -0.2732
      5 N          58.2847   94.0000   -1.6700 N.am    1  UNL1       -0.2541
      6 C          57.8294   94.5667   -2.9820 C.3     1  UNL1        0.1577
      7 C          58.8022   95.2923   -3.8636 C.2     1  UNL1        0.2445
      8 O          58.3469   95.8590   -5.1756 O.2     1  UNL1       -0.2731
      9 N          60.2304   95.4510   -3.4332 N.am    1  UNL1       -0.2705
     10 C          60.6857   94.8843   -2.1211 C.3     1  UNL1        0.1359
     11 C          59.7128   94.1587   -1.2395 C.3     1  UNL1        0.1908
     12 N          60.1681   93.5919    0.0725 N.am    1  UNL1       -0.1863
     13 C          61.5963   93.7507    0.5030 C.2     1  UNL1        0.3191
     14 O          62.5691   94.4762   -0.3786 O.2     1  UNL1       -0.2512
     15 N          62.0516   93.1839    1.8150 N.am    1  UNL1       -0.2836
     16 H          61.4131   92.7077    2.3936 H       1  UNL1        0.1513
     17 C          59.6506   92.2996    2.2662 C.3     1  UNL1        0.1188
     18 C          59.2233   91.9767    4.8084 C.2     1  UNL1       -0.0034
     19 C          59.0058   92.7517    3.5427 C.2     1  UNL1       -0.0071
     20 C          56.4014   94.4080   -3.4125 C.3     1  UNL1        0.0556
     21 C          56.0397   93.3863   -4.4494 C.ar    1  UNL1       -0.0198
     22 C          55.5920   93.8263   -5.8117 C.ar    1  UNL1       -0.0011
     23 C          55.2303   92.8045   -6.8487 C.ar    1  UNL1        0.0363
     24 C          55.3164   91.3428   -6.5233 C.ar    1  UNL1        0.1337
     25 O          54.9548   90.3211   -7.5603 O.3     1  UNL1       -0.5055
     26 C          55.7642   90.9027   -5.1610 C.ar    1  UNL1        0.0363
     27 C          56.1258   91.9245   -4.1240 C.ar    1  UNL1       -0.0011
     28 H          54.6751   90.5959   -8.4113 H       1  UNL1        0.2922
     29 C          61.2032   96.1766   -4.3148 C.3     1  UNL1        0.1217
     30 C          62.6309   95.7225   -4.3891 C.ar    1  UNL1        0.0135
     31 C          63.6354   96.2421   -3.4037 C.ar    1  UNL1       -0.0012
     32 C          65.0631   95.7881   -3.4781 C.ar    1  UNL1       -0.0002
     33 C          65.4863   94.8146   -4.5378 C.ar    1  UNL1        0.0016
     34 C          64.4818   94.2950   -5.5232 C.ar    1  UNL1        0.0214
     35 C          64.6038   93.3348   -6.6691 C.ar    1  UNL1        0.0719
     36 C          63.2515   93.1954   -7.3030 C.ar    1  UNL1        0.0805
     37 N          62.2938   94.0694   -6.5488 N.ar    1  UNL1       -0.3241
     38 C          60.8322   94.2347   -6.8430 C.3     1  UNL1        0.1305
     39 C          63.0541   94.7490   -5.4488 C.ar    1  UNL1        0.0577
     40 C          65.8580   92.6366   -7.1047 C.2     1  UNL1        0.2473
     41 O          67.0495   93.4371   -7.5400 O.2     1  UNL1       -0.2701
     42 N          65.9206   91.1379   -7.1049 N.am    1  UNL1       -0.3008
     43 H          65.1386   90.6125   -6.8192 H       1  UNL1        0.1497
     44 C          67.1747   90.4397   -7.5404 C.3     1  UNL1        0.0898
     45 C          67.5468   89.1188   -6.9347 C.3     1  UNL1        0.0238
     46 C          67.0287   87.8457   -7.5354 C.3     1  UNL1        0.0338
     47 C          67.0202   86.5834   -6.7253 C.3     1  UNL1        0.1423
     48 O          68.3104   85.8878   -6.4068 O.3     1  UNL1       -0.3511
     49 C          68.4501   84.4152   -6.6561 C.3     1  UNL1        0.1741
     50 C          63.4797   93.3426    2.2454 C.3     1  UNL1        0.1177
     51 C          64.2927   94.4959    1.7364 C.ar    1  UNL1       -0.0025
     52 C          64.8683   94.4545    0.3519 C.ar    1  UNL1       -0.0026
     53 C          65.6813   95.6077   -0.1571 C.ar    1  UNL1       -0.0003
     54 C          65.9187   96.8023    0.7183 C.ar    1  UNL1       -0.0000
     55 C          65.3431   96.8437    2.1029 C.ar    1  UNL1       -0.0003
     56 C          64.5301   95.6905    2.6120 C.ar    1  UNL1       -0.0026
@<TRIPOS>BOND
     1    18    19    2
     2    19    17    1
     3    17     1    1
     4     1     2    1
     5     2     3    1
     6     3     4    2
     7     3     5   am
     8     5     6    1
     9     6    20    1
    10    20    21    1
    11    21    22   ar
    12    22    23   ar
    13    23    24   ar
    14    24    25    1
    15    24    26   ar
    16    26    27   ar
    17     6     7    1
    18     7     8    2
    19     7     9   am
    20     9    29    1
    21    29    30    1
    22    30    31   ar
    23    31    32   ar
    24    32    33   ar
    25    33    34   ar
    26    34    35   ar
    27    35    40    1
    28    40    41    2
    29    40    42   am
    30    42    44    1
    31    44    45    1
    32    45    46    1
    33    46    47    1
    34    47    48    1
    35    48    49    1
    36    35    36   ar
    37    36    37   ar
    38    37    38    1
    39    37    39   ar
    40     9    10    1
    41    11    10    1
    42    11    12    1
    43    12    13   am
    44    13    14    2
    45    13    15   am
    46    15    50    1
    47    50    51    1
    48    51    52   ar
    49    52    53   ar
    50    53    54   ar
    51    54    55   ar
    52    55    56   ar
    53    12     1    1
    54    56    51   ar
    55    11     5    1
    56    27    21   ar
    57    39    30   ar
    58    39    34   ar
    59    25    28    1
    60    42    43    1
    61    15    16    1
@<TRIPOS>MOLECULE
*****
 56 61 0 0 0
SMALL
GASTEIGER

@<TRIPOS>ATOM
      1 N          63.0120   84.1098    9.5761 N.3     1  UNL1       -0.1862
      2 C          62.3986   84.1613    8.2083 C.3     1  UNL1        0.1775
      3 C          61.5588   85.3376    7.8067 C.2     1  UNL1        0.2452
      4 O          60.9454   85.3890    6.4387 O.2     1  UNL1       -0.2732
      5 N          61.3325   86.4623    8.7729 N.am    1  UNL1       -0.2541
      6 C          60.4927   87.6386    8.3713 C.3     1  UNL1        0.1577
      7 C          60.2664   88.7633    9.3375 C.2     1  UNL1        0.2445
      8 O          59.4267   89.9396    8.9359 O.2     1  UNL1       -0.2731
      9 N          60.8798   88.7119   10.7054 N.am    1  UNL1       -0.2705
     10 C          61.7195   87.5356   11.1070 C.3     1  UNL1        0.1359
     11 C          61.9459   86.4108   10.1407 C.3     1  UNL1        0.1908
     12 N          62.7856   85.2346   10.5423 N.am    1  UNL1       -0.1863
     13 C          63.3990   85.1831   11.9103 C.2     1  UNL1        0.3191
     14 O          63.1727   86.3079   12.8765 O.2     1  UNL1       -0.2512
     15 N          64.2388   84.0069   12.3119 N.am    1  UNL1       -0.2836
     16 H          64.3873   83.2687   11.6777 H       1  UNL1        0.1513
     17 C          63.8517   82.9336    9.9777 C.3     1  UNL1        0.1188
     18 C          62.9225   81.2085   11.6838 C.2     1  UNL1       -0.0034
     19 C          63.2027   81.6125   10.2666 C.2     1  UNL1       -0.0071
     20 C          59.8793   87.6900    7.0034 C.3     1  UNL1        0.0556
     21 C          59.6027   89.0140    6.3548 C.ar    1  UNL1       -0.0198
     22 C          60.7342   89.8305    5.8045 C.ar    1  UNL1       -0.0011
     23 C          60.4576   91.1545    5.1559 C.ar    1  UNL1        0.0363
     24 C          59.0495   91.6619    5.0577 C.ar    1  UNL1        0.1337
     25 O          58.7728   92.9858    4.4091 O.3     1  UNL1       -0.5055
     26 C          57.9179   90.8453    5.6081 C.ar    1  UNL1        0.0363
     27 C          58.1945   89.5214    6.2566 C.ar    1  UNL1       -0.0011
     28 H          59.4797   93.4959    4.0653 H       1  UNL1        0.2922
     29 C          60.6535   89.8366   11.6717 C.3     1  UNL1        0.1217
     30 C          61.6296   90.0769   12.7850 C.ar    1  UNL1        0.0135
     31 C          61.3557   89.5282   14.1540 C.ar    1  UNL1       -0.0012
     32 C          62.3318   89.7684   15.2673 C.ar    1  UNL1       -0.0002
     33 C          63.5817   90.5573   15.0117 C.ar    1  UNL1        0.0016
     34 C          63.8556   91.1059   13.6427 C.ar    1  UNL1        0.0214
     35 C          64.9939   91.9145   13.0948 C.ar    1  UNL1        0.0719
     36 C          64.7214   92.1740   11.6428 C.ar    1  UNL1        0.0805
     37 N          63.4147   91.5258   11.2934 N.ar    1  UNL1       -0.3241
     38 C          62.7582   91.5360    9.9447 C.3     1  UNL1        0.1305
     39 C          62.8795   90.8657   12.5294 C.ar    1  UNL1        0.0577
     40 C          66.1942   92.3816   13.8638 C.2     1  UNL1        0.2473
     41 O          66.6926   93.7863   13.6956 O.2     1  UNL1       -0.2701
     42 N          66.8959   91.4439   14.8010 N.am    1  UNL1       -0.3008
     43 H          66.5687   90.5220   14.9114 H       1  UNL1        0.1497
     44 C          68.0961   91.9109   15.5701 C.3     1  UNL1        0.0898
     45 C          69.4523   91.8892   14.9297 C.3     1  UNL1        0.0238
     46 C          69.6106   92.2950   13.4944 C.3     1  UNL1        0.0338
     47 C          69.0691   91.4195   12.4034 C.3     1  UNL1        0.1423
     48 O          68.1719   92.0006   11.3511 O.3     1  UNL1       -0.3511
     49 C          68.7164   92.3090    9.9879 C.3     1  UNL1        0.1741
     50 C          64.8522   83.9554   13.6797 C.3     1  UNL1        0.1177
     51 C          64.1808   84.6466   14.8293 C.ar    1  UNL1       -0.0025
     52 C          62.9879   84.0197   15.4881 C.ar    1  UNL1       -0.0026
     53 C          62.3165   84.7109   16.6377 C.ar    1  UNL1       -0.0003
     54 C          62.8379   86.0289   17.1284 C.ar    1  UNL1       -0.0000
     55 C          64.0309   86.6558   16.4696 C.ar    1  UNL1       -0.0003
     56 C          64.7023   85.9647   15.3200 C.ar    1  UNL1       -0.0026
@<TRIPOS>BOND
     1    18    19    2
     2    19    17    1
     3    17     1    1
     4     1     2    1
     5     2     3    1
     6     3     4    2
     7     3     5   am
     8     5     6    1
     9     6    20    1
    10    20    21    1
    11    21    22   ar
    12    22    23   ar
    13    23    24   ar
    14    24    25    1
    15    24    26   ar
    16    26    27   ar
    17     6     7    1
    18     7     8    2
    19     7     9   am
    20     9    29    1
    21    29    30    1
    22    30    31   ar
    23    31    32   ar
    24    32    33   ar
    25    33    34   ar
    26    34    35   ar
    27    35    40    1
    28    40    41    2
    29    40    42   am
    30    42    44    1
    31    44    45    1
    32    45    46    1
    33    46    47    1
    34    47    48    1
    35    48    49    1
    36    35    36   ar
    37    36    37   ar
    38    37    38    1
    39    37    39   ar
    40     9    10    1
    41    11    10    1
    42    11    12    1
    43    12    13   am
    44    13    14    2
    45    13    15   am
    46    15    50    1
    47    50    51    1
    48    51    52   ar
    49    52    53   ar
    50    53    54   ar
    51    54    55   ar
    52    55    56   ar
    53    12     1    1
    54    56    51   ar
    55    11     5    1
    56    27    21   ar
    57    39    30   ar
    58    39    34   ar
    59    25    28    1
    60    42    43    1
    61    15    16    1
@<TRIPOS>MOLECULE
*****
 56 61 0 0 0
SMALL
GASTEIGER

@<TRIPOS>ATOM
      1 N          63.9476   86.2678   15.8429 N.3     1  UNL1       -0.1862
      2 C          64.1089   84.8043   16.1293 C.3     1  UNL1        0.1775
      3 C          63.9198   83.7999   15.0314 C.2     1  UNL1        0.2452
      4 O          64.0811   82.3363   15.3179 O.2     1  UNL1       -0.2732
      5 N          63.5695   84.2590   13.6471 N.am    1  UNL1       -0.2541
      6 C          63.3805   83.2546   12.5491 C.3     1  UNL1        0.1577
      7 C          63.0302   83.7138   11.1648 C.2     1  UNL1        0.2445
      8 O          62.8411   82.7094   10.0669 O.2     1  UNL1       -0.2731
      9 N          62.8689   85.1774   10.8783 N.am    1  UNL1       -0.2705
     10 C          63.0579   86.1817   11.9763 C.3     1  UNL1        0.1359
     11 C          63.4083   85.7225   13.3607 C.3     1  UNL1        0.1908
     12 N          63.5973   86.7269   14.4586 N.am    1  UNL1       -0.1863
     13 C          63.4360   88.1905   14.1721 C.2     1  UNL1        0.3191
     14 O          63.0857   88.6496   12.7878 O.2     1  UNL1       -0.2512
     15 N          63.6251   89.1949   15.2701 N.am    1  UNL1       -0.2836
     16 H          63.8550   88.8935   16.1787 H       1  UNL1        0.1513
     17 C          64.1367   87.2722   16.9409 C.3     1  UNL1        0.1188
     18 C          62.5204   86.8069   18.9210 C.2     1  UNL1       -0.0034
     19 C          62.9706   87.6834   17.7901 C.2     1  UNL1       -0.0071
     20 C          63.5417   81.7911   12.8355 C.3     1  UNL1        0.0556
     21 C          62.3581   80.9761   13.2653 C.ar    1  UNL1       -0.0198
     22 C          62.4116   79.4789   13.1910 C.ar    1  UNL1       -0.0011
     23 C          61.2279   78.6639   13.6208 C.ar    1  UNL1        0.0363
     24 C          59.9908   79.3461   14.1248 C.ar    1  UNL1        0.1337
     25 O          58.8071   78.5311   14.5546 O.3     1  UNL1       -0.5055
     26 C          59.9372   80.8433   14.1991 C.ar    1  UNL1        0.0363
     27 C          61.1209   81.6583   13.7694 C.ar    1  UNL1       -0.0011
     28 H          58.8405   77.5958   14.5082 H       1  UNL1        0.2922
     29 C          62.5186   85.6365    9.4940 C.3     1  UNL1        0.1217
     30 C          61.9871   87.0221    9.2753 C.ar    1  UNL1        0.0135
     31 C          62.4534   88.1504   10.1468 C.ar    1  UNL1       -0.0012
     32 C          61.9220   89.5359    9.9282 C.ar    1  UNL1       -0.0002
     33 C          60.9243   89.7932    8.8381 C.ar    1  UNL1        0.0016
     34 C          60.4581   88.6649    7.9666 C.ar    1  UNL1        0.0214
     35 C          59.4900   88.6147    6.8219 C.ar    1  UNL1        0.0719
     36 C          59.4231   87.1982    6.3331 C.ar    1  UNL1        0.0805
     37 N          60.3498   86.3729    7.1756 N.ar    1  UNL1       -0.3241
     38 C          60.5940   84.8998    7.0336 C.3     1  UNL1        0.1305
     39 C          60.9895   87.2793    8.1852 C.ar    1  UNL1        0.0577
     40 C          58.7233   89.7772    6.2640 C.2     1  UNL1        0.2473
     41 O          57.2357   89.8495    6.4423 O.2     1  UNL1       -0.2701
     42 N          59.4443   90.8672    5.5278 N.am    1  UNL1       -0.3008
     43 H          60.4207   90.8197    5.4108 H       1  UNL1        0.1497
     44 C          58.6778   92.0296    4.9699 C.3     1  UNL1        0.0898
     45 C          59.3929   93.0985    4.1979 C.3     1  UNL1        0.0238
     46 C          59.9916   92.7834    2.8591 C.3     1  UNL1        0.0338
     47 C          61.4708   92.5703    2.7304 C.3     1  UNL1        0.1423
     48 O          62.1929   91.7054    3.7204 O.3     1  UNL1       -0.3511
     49 C          63.3561   90.8685    3.2772 C.3     1  UNL1        0.1741
     50 C          63.4638   90.6584   14.9837 C.3     1  UNL1        0.1177
     51 C          64.5978   91.4343   14.3821 C.ar    1  UNL1       -0.0025
     52 C          64.6381   91.6783   12.9026 C.ar    1  UNL1       -0.0026
     53 C          65.7722   92.4542   12.3010 C.ar    1  UNL1       -0.0003
     54 C          66.8659   92.9862   13.1789 C.ar    1  UNL1       -0.0000
     55 C          66.8256   92.7423   14.6584 C.ar    1  UNL1       -0.0003
     56 C          65.6916   91.9664   15.2600 C.ar    1  UNL1       -0.0026
@<TRIPOS>BOND
     1    18    19    2
     2    19    17    1
     3    17     1    1
     4     1     2    1
     5     2     3    1
     6     3     4    2
     7     3     5   am
     8     5     6    1
     9     6    20    1
    10    20    21    1
    11    21    22   ar
    12    22    23   ar
    13    23    24   ar
    14    24    25    1
    15    24    26   ar
    16    26    27   ar
    17     6     7    1
    18     7     8    2
    19     7     9   am
    20     9    29    1
    21    29    30    1
    22    30    31   ar
    23    31    32   ar
    24    32    33   ar
    25    33    34   ar
    26    34    35   ar
    27    35    40    1
    28    40    41    2
    29    40    42   am
    30    42    44    1
    31    44    45    1
    32    45    46    1
    33    46    47    1
    34    47    48    1
    35    48    49    1
    36    35    36   ar
    37    36    37   ar
    38    37    38    1
    39    37    39   ar
    40     9    10    1
    41    11    10    1
    42    11    12    1
    43    12    13   am
    44    13    14    2
    45    13    15   am
    46    15    50    1
    47    50    51    1
    48    51    52   ar
    49    52    53   ar
    50    53    54   ar
    51    54    55   ar
    52    55    56   ar
    53    12     1    1
    54    56    51   ar
    55    11     5    1
    56    27    21   ar
    57    39    30   ar
    58    39    34   ar
    59    25    28    1
    60    42    43    1
    61    15    16    1
@<TRIPOS>MOLECULE
*****
 56 61 0 0 0
SMALL
GASTEIGER

@<TRIPOS>ATOM
      1 N          65.3717   89.3455   14.6847 N.3     1  UNL1       -0.1862
      2 C          65.5737   88.1003   15.4962 C.3     1  UNL1        0.1775
      3 C          64.8501   86.8392   15.1274 C.2     1  UNL1        0.2452
      4 O          65.0521   85.5939   15.9389 O.2     1  UNL1       -0.2732
      5 N          63.9245   86.8233   13.9472 N.am    1  UNL1       -0.2541
      6 C          63.2009   85.5622   13.5784 C.3     1  UNL1        0.1577
      7 C          62.2753   85.5463   12.3982 C.2     1  UNL1        0.2445
      8 O          61.5517   84.2852   12.0294 O.2     1  UNL1       -0.2731
      9 N          62.0732   86.7916   11.5867 N.am    1  UNL1       -0.2705
     10 C          62.7968   88.0527   11.9554 C.3     1  UNL1        0.1359
     11 C          63.7225   88.0686   13.1357 C.3     1  UNL1        0.1908
     12 N          64.4461   89.3297   13.5045 N.am    1  UNL1       -0.1863
     13 C          64.2440   90.5750   12.6929 C.2     1  UNL1        0.3191
     14 O          63.3184   90.5591   11.5127 O.2     1  UNL1       -0.2512
     15 N          64.9676   91.8361   13.0617 N.am    1  UNL1       -0.2836
     16 H          65.5751   91.8465   13.8363 H       1  UNL1        0.1513
     17 C          66.0953   90.6067   15.0535 C.3     1  UNL1        0.1188
     18 C          68.1045   92.2173   14.7090 C.2     1  UNL1       -0.0034
     19 C          67.4578   90.8818   14.4898 C.2     1  UNL1       -0.0071
     20 C          63.4029   84.3169   14.3899 C.3     1  UNL1        0.0556
     21 C          63.1869   82.9708   13.7643 C.ar    1  UNL1       -0.0198
     22 C          62.1358   82.0502   14.3099 C.ar    1  UNL1       -0.0011
     23 C          61.9198   80.7041   13.6844 C.ar    1  UNL1        0.0363
     24 C          62.7548   80.2786   12.5132 C.ar    1  UNL1        0.1337
     25 O          62.5388   78.9325   11.8877 O.3     1  UNL1       -0.5055
     26 C          63.8059   81.1992   11.9675 C.ar    1  UNL1        0.0363
     27 C          64.0219   82.5453   12.5931 C.ar    1  UNL1       -0.0011
     28 H          61.8822   78.3574   12.2285 H       1  UNL1        0.2922
     29 C          61.1477   86.7757   10.4064 C.3     1  UNL1        0.1217
     30 C          60.5510   88.0570    9.9039 C.ar    1  UNL1        0.0135
     31 C          60.3234   89.1996   10.8487 C.ar    1  UNL1       -0.0012
     32 C          59.7267   90.4808   10.3463 C.ar    1  UNL1       -0.0002
     33 C          59.3577   90.6194    8.8990 C.ar    1  UNL1        0.0016
     34 C          59.5852   89.4768    7.9543 C.ar    1  UNL1        0.0214
     35 C          59.3232   89.3214    6.4855 C.ar    1  UNL1        0.0719
     36 C          59.7578   87.9441    6.0803 C.ar    1  UNL1        0.0805
     37 N          60.2885   87.2484    7.2985 N.ar    1  UNL1       -0.3241
     38 C          60.8308   85.8508    7.3496 C.3     1  UNL1        0.1305
     39 C          60.1819   88.1956    8.4567 C.ar    1  UNL1        0.0577
     40 C          58.7304   90.3608    5.5809 C.2     1  UNL1        0.2473
     41 O          57.2409   90.4779    5.4477 O.2     1  UNL1       -0.2701
     42 N          59.6272   91.2831    4.8094 N.am    1  UNL1       -0.3008
     43 H          60.6048   91.2062    4.8967 H       1  UNL1        0.1497
     44 C          59.0345   92.3225    3.9047 C.3     1  UNL1        0.0898
     45 C          59.9308   93.2009    3.0831 C.3     1  UNL1        0.0238
     46 C          60.9793   92.5882    2.2026 C.3     1  UNL1        0.0338
     47 C          62.3981   93.0688    2.2799 C.3     1  UNL1        0.1423
     48 O          63.3965   92.3275    3.1186 O.3     1  UNL1       -0.3511
     49 C          63.3385   90.8312    3.2065 C.3     1  UNL1        0.1741
     50 C          64.7656   93.0813   12.2503 C.3     1  UNL1        0.1177
     51 C          65.7827   93.4799   11.2223 C.ar    1  UNL1       -0.0025
     52 C          66.7870   92.4787   10.7334 C.ar    1  UNL1       -0.0026
     53 C          67.8041   92.8773    9.7054 C.ar    1  UNL1       -0.0003
     54 C          67.8168   94.2770    9.1663 C.ar    1  UNL1       -0.0000
     55 C          66.8125   95.2782    9.6552 C.ar    1  UNL1       -0.0003
     56 C          65.7954   94.8797   10.6832 C.ar    1  UNL1       -0.0026
@<TRIPOS>BOND
     1    18    19    2
     2    19    17    1
     3    17     1    1
     4     1     2    1
     5     2     3    1
     6     3     4    2
     7     3     5   am
     8     5     6    1
     9     6    20    1
    10    20    21    1
    11    21    22   ar
    12    22    23   ar
    13    23    24   ar
    14    24    25    1
    15    24    26   ar
    16    26    27   ar
    17     6     7    1
    18     7     8    2
    19     7     9   am
    20     9    29    1
    21    29    30    1
    22    30    31   ar
    23    31    32   ar
    24    32    33   ar
    25    33    34   ar
    26    34    35   ar
    27    35    40    1
    28    40    41    2
    29    40    42   am
    30    42    44    1
    31    44    45    1
    32    45    46    1
    33    46    47    1
    34    47    48    1
    35    48    49    1
    36    35    36   ar
    37    36    37   ar
    38    37    38    1
    39    37    39   ar
    40     9    10    1
    41    11    10    1
    42    11    12    1
    43    12    13   am
    44    13    14    2
    45    13    15   am
    46    15    50    1
    47    50    51    1
    48    51    52   ar
    49    52    53   ar
    50    53    54   ar
    51    54    55   ar
    52    55    56   ar
    53    12     1    1
    54    56    51   ar
    55    11     5    1
    56    27    21   ar
    57    39    30   ar
    58    39    34   ar
    59    25    28    1
    60    42    43    1
    61    15    16    1
@<TRIPOS>MOLECULE
*****
 56 61 0 0 0
SMALL
GASTEIGER

@<TRIPOS>ATOM
      1 N          61.3445   85.0648    7.4311 N.3     1  UNL1       -0.1862
      2 C          60.3243   85.7160    6.5451 C.3     1  UNL1        0.1775
      3 C          59.7480   87.0494    6.9190 C.2     1  UNL1        0.2452
      4 O          58.7277   87.7006    6.0329 O.2     1  UNL1       -0.2732
      5 N          60.1919   87.7317    8.1789 N.am    1  UNL1       -0.2541
      6 C          59.6155   89.0651    8.5528 C.3     1  UNL1        0.1577
      7 C          60.0594   89.7474    9.8127 C.2     1  UNL1        0.2445
      8 O          59.4831   91.0808   10.1866 O.2     1  UNL1       -0.2731
      9 N          61.0797   89.0962   10.6988 N.am    1  UNL1       -0.2705
     10 C          61.6560   87.7627   10.3249 C.3     1  UNL1        0.1359
     11 C          61.2121   87.0805    9.0649 C.3     1  UNL1        0.1908
     12 N          61.7884   85.7471    8.6910 N.am    1  UNL1       -0.1863
     13 C          62.8087   85.0959    9.5771 C.2     1  UNL1        0.3191
     14 O          63.2526   85.7781   10.8370 O.2     1  UNL1       -0.2512
     15 N          63.3850   83.7624    9.2032 N.am    1  UNL1       -0.2836
     16 H          63.0936   83.3147    8.3762 H       1  UNL1        0.1513
     17 C          61.9208   83.7314    7.0572 C.3     1  UNL1        0.1188
     18 C          61.8394   84.0623    4.4816 C.2     1  UNL1       -0.0034
     19 C          62.5317   83.5317    5.7018 C.2     1  UNL1       -0.0071
     20 C          58.5953   89.7163    7.6668 C.3     1  UNL1        0.0556
     21 C          59.0327   90.4578    6.4384 C.ar    1  UNL1       -0.0198
     22 C          60.4801   90.4698    6.0451 C.ar    1  UNL1       -0.0011
     23 C          60.9175   91.2113    4.8168 C.ar    1  UNL1        0.0363
     24 C          59.9074   91.9409    3.9817 C.ar    1  UNL1        0.1337
     25 O          60.3448   92.6825    2.7534 O.3     1  UNL1       -0.5055
     26 C          58.4599   91.9290    4.3750 C.ar    1  UNL1        0.0363
     27 C          58.0225   91.1875    5.6034 C.ar    1  UNL1       -0.0011
     28 H          61.2490   92.6899    2.5077 H       1  UNL1        0.2922
     29 C          61.5236   89.7784   11.9587 C.3     1  UNL1        0.1217
     30 C          62.7580   90.6308   11.9552 C.ar    1  UNL1        0.0135
     31 C          63.2377   91.2507   10.6763 C.ar    1  UNL1       -0.0012
     32 C          64.4719   92.1030   10.6727 C.ar    1  UNL1       -0.0002
     33 C          65.2265   92.3355   11.9480 C.ar    1  UNL1        0.0016
     34 C          64.7468   91.7156   13.2270 C.ar    1  UNL1        0.0214
     35 C          65.2791   91.7663   14.6284 C.ar    1  UNL1        0.0719
     36 C          64.3738   90.9453   15.4981 C.ar    1  UNL1        0.0805
     37 N          63.2820   90.3872   14.6342 N.ar    1  UNL1       -0.3241
     38 C          62.1572   89.5075   15.0932 C.3     1  UNL1        0.1305
     39 C          63.5125   90.8633   13.2305 C.ar    1  UNL1        0.0577
     40 C          66.5021   92.5079   15.0807 C.2     1  UNL1        0.2473
     41 O          66.6399   93.9735   14.7926 O.2     1  UNL1       -0.2701
     42 N          67.5872   91.7838   15.8212 N.am    1  UNL1       -0.3008
     43 H          67.4967   90.8219   16.0103 H       1  UNL1        0.1497
     44 C          68.8101   92.5253   16.2735 C.3     1  UNL1        0.0898
     45 C          69.7959   93.0330   15.2634 C.3     1  UNL1        0.0238
     46 C          70.0008   92.2903   13.9764 C.3     1  UNL1        0.0338
     47 C          68.8292   91.9897   13.0893 C.3     1  UNL1        0.1423
     48 O          69.0545   91.5169   11.6837 O.3     1  UNL1       -0.3511
     49 C          68.3731   92.2097   10.5410 C.3     1  UNL1        0.1741
     50 C          64.4052   83.1113   10.0892 C.3     1  UNL1        0.1177
     51 C          63.9752   82.4353   11.3573 C.ar    1  UNL1       -0.0025
     52 C          63.1357   81.1937   11.2980 C.ar    1  UNL1       -0.0026
     53 C          62.7056   80.5178   12.5661 C.ar    1  UNL1       -0.0003
     54 C          63.1151   81.0835   13.8936 C.ar    1  UNL1       -0.0000
     55 C          63.9547   82.3251   13.9530 C.ar    1  UNL1       -0.0003
     56 C          64.3847   83.0011   12.6849 C.ar    1  UNL1       -0.0026
@<TRIPOS>BOND
     1    18    19    2
     2    19    17    1
     3    17     1    1
     4     1     2    1
     5     2     3    1
     6     3     4    2
     7     3     5   am
     8     5     6    1
     9     6    20    1
    10    20    21    1
    11    21    22   ar
    12    22    23   ar
    13    23    24   ar
    14    24    25    1
    15    24    26   ar
    16    26    27   ar
    17     6     7    1
    18     7     8    2
    19     7     9   am
    20     9    29    1
    21    29    30    1
    22    30    31   ar
    23    31    32   ar
    24    32    33   ar
    25    33    34   ar
    26    34    35   ar
    27    35    40    1
    28    40    41    2
    29    40    42   am
    30    42    44    1
    31    44    45    1
    32    45    46    1
    33    46    47    1
    34    47    48    1
    35    48    49    1
    36    35    36   ar
    37    36    37   ar
    38    37    38    1
    39    37    39   ar
    40     9    10    1
    41    11    10    1
    42    11    12    1
    43    12    13   am
    44    13    14    2
    45    13    15   am
    46    15    50    1
    47    50    51    1
    48    51    52   ar
    49    52    53   ar
    50    53    54   ar
    51    54    55   ar
    52    55    56   ar
    53    12     1    1
    54    56    51   ar
    55    11     5    1
    56    27    21   ar
    57    39    30   ar
    58    39    34   ar
    59    25    28    1
    60    42    43    1
    61    15    16    1
@<TRIPOS>MOLECULE
*****
 56 61 0 0 0
SMALL
GASTEIGER

@<TRIPOS>ATOM
      1 N          62.6770   84.0614    9.7022 N.3     1  UNL1       -0.1862
      2 C          61.9686   84.0691    8.3801 C.3     1  UNL1        0.1775
      3 C          61.2581   85.3064    7.9171 C.2     1  UNL1        0.2452
      4 O          60.5497   85.3141    6.5949 O.2     1  UNL1       -0.2732
      5 N          61.2560   86.5359    8.7763 N.am    1  UNL1       -0.2541
      6 C          60.5455   87.7732    8.3133 C.3     1  UNL1        0.1577
      7 C          60.5433   89.0027    9.1725 C.2     1  UNL1        0.2445
      8 O          59.8328   90.2400    8.7095 O.2     1  UNL1       -0.2731
      9 N          61.2517   88.9950   10.4947 N.am    1  UNL1       -0.2705
     10 C          61.9623   87.7578   10.9577 C.3     1  UNL1        0.1359
     11 C          61.9644   86.5282   10.0984 C.3     1  UNL1        0.1908
     12 N          62.6749   85.2909   10.5614 N.am    1  UNL1       -0.1863
     13 C          63.3833   85.2832   11.8836 C.2     1  UNL1        0.3191
     14 O          63.3811   86.5127   12.7428 O.2     1  UNL1       -0.2512
     15 N          64.0938   84.0459   12.3466 N.am    1  UNL1       -0.2836
     16 H          64.0952   83.2390   11.7826 H       1  UNL1        0.1513
     17 C          63.3875   82.8241   10.1652 C.3     1  UNL1        0.1188
     18 C          62.9616   80.6171   11.4680 C.2     1  UNL1       -0.0034
     19 C          62.6276   81.5422   10.3355 C.2     1  UNL1       -0.0071
     20 C          59.8371   87.7810    6.9912 C.3     1  UNL1        0.0556
     21 C          59.5990   89.0775    6.2754 C.ar    1  UNL1       -0.0198
     22 C          58.2210   89.6684    6.2324 C.ar    1  UNL1       -0.0011
     23 C          57.9829   90.9650    5.5167 C.ar    1  UNL1        0.0363
     24 C          59.1229   91.6706    4.8440 C.ar    1  UNL1        0.1337
     25 O          58.8848   92.9671    4.1282 O.3     1  UNL1       -0.5055
     26 C          60.5010   91.0797    4.8869 C.ar    1  UNL1        0.0363
     27 C          60.7390   89.7831    5.6027 C.ar    1  UNL1       -0.0011
     28 H          58.0240   93.3363    4.1014 H       1  UNL1        0.2922
     29 C          61.2496   90.2245   11.3539 C.3     1  UNL1        0.1217
     30 C          62.5435   90.8998   11.7002 C.ar    1  UNL1        0.0135
     31 C          63.2930   91.6674   10.6519 C.ar    1  UNL1       -0.0012
     32 C          64.5869   92.3426   10.9982 C.ar    1  UNL1       -0.0002
     33 C          65.1313   92.2502   12.3929 C.ar    1  UNL1        0.0016
     34 C          64.3818   91.4826   13.4412 C.ar    1  UNL1        0.0214
     35 C          64.6689   91.2190   14.8896 C.ar    1  UNL1        0.0719
     36 C          63.5526   90.3809   15.4385 C.ar    1  UNL1        0.0805
     37 N          62.5755   90.1265   14.3293 N.ar    1  UNL1       -0.3241
     38 C          61.3083   89.3309   14.4358 C.3     1  UNL1        0.1305
     39 C          63.0879   90.8074   13.0949 C.ar    1  UNL1        0.0577
     40 C          65.8630   91.7077   15.6549 C.2     1  UNL1        0.2473
     41 O          65.6745   92.4568   16.9408 O.2     1  UNL1       -0.2701
     42 N          67.2454   91.4474   15.1343 N.am    1  UNL1       -0.3008
     43 H          67.3691   90.9558   14.2904 H       1  UNL1        0.1497
     44 C          68.4394   91.9361   15.8995 C.3     1  UNL1        0.0898
     45 C          68.6210   93.4040   16.1490 C.3     1  UNL1        0.0238
     46 C          68.2758   94.3952   15.0775 C.3     1  UNL1        0.0338
     47 C          66.9719   94.2836   14.3444 C.3     1  UNL1        0.1423
     48 O          66.9498   94.3104   12.8448 O.3     1  UNL1       -0.3511
     49 C          66.4331   95.5200   12.1238 C.3     1  UNL1        0.1741
     50 C          64.8022   84.0382   13.6687 C.3     1  UNL1        0.1177
     51 C          64.2067   84.7571   14.8428 C.ar    1  UNL1       -0.0025
     52 C          64.7496   86.0921   15.2589 C.ar    1  UNL1       -0.0026
     53 C          64.1541   86.8110   16.4330 C.ar    1  UNL1       -0.0003
     54 C          63.0158   86.1949   17.1911 C.ar    1  UNL1       -0.0000
     55 C          62.4729   84.8599   16.7751 C.ar    1  UNL1       -0.0003
     56 C          63.0684   84.1410   15.6009 C.ar    1  UNL1       -0.0026
@<TRIPOS>BOND
     1    18    19    2
     2    19    17    1
     3    17     1    1
     4     1     2    1
     5     2     3    1
     6     3     4    2
     7     3     5   am
     8     5     6    1
     9     6    20    1
    10    20    21    1
    11    21    22   ar
    12    22    23   ar
    13    23    24   ar
    14    24    25    1
    15    24    26   ar
    16    26    27   ar
    17     6     7    1
    18     7     8    2
    19     7     9   am
    20     9    29    1
    21    29    30    1
    22    30    31   ar
    23    31    32   ar
    24    32    33   ar
    25    33    34   ar
    26    34    35   ar
    27    35    40    1
    28    40    41    2
    29    40    42   am
    30    42    44    1
    31    44    45    1
    32    45    46    1
    33    46    47    1
    34    47    48    1
    35    48    49    1
    36    35    36   ar
    37    36    37   ar
    38    37    38    1
    39    37    39   ar
    40     9    10    1
    41    11    10    1
    42    11    12    1
    43    12    13   am
    44    13    14    2
    45    13    15   am
    46    15    50    1
    47    50    51    1
    48    51    52   ar
    49    52    53   ar
    50    53    54   ar
    51    54    55   ar
    52    55    56   ar
    53    12     1    1
    54    56    51   ar
    55    11     5    1
    56    27    21   ar
    57    39    30   ar
    58    39    34   ar
    59    25    28    1
    60    42    43    1
    61    15    16    1
