@<TRIPOS>MOLECULE
*****
 28 32 0 0 0
SMALL
GASTEIGER

@<TRIPOS>ATOM
      1 C          64.1374   90.1313   13.6953 C.ar    1  UNL1        0.1385
      2 C          63.3991   89.8373   12.4231 C.ar    1  UNL1        0.0384
      3 C          63.0684   88.4205   12.0582 C.ar    1  UNL1        0.0203
      4 C          63.4760   87.2977   12.9654 C.ar    1  UNL1        0.0602
      5 C          64.2143   87.5916   14.2376 C.ar    1  UNL1        0.0204
      6 C          64.5450   89.0084   14.6025 C.ar    1  UNL1        0.0384
      7 C          64.4846   86.2879   14.9285 C.ar    1  UNL1        0.0234
      8 C          63.9134   85.1882   14.0833 C.ar    1  UNL1        0.1143
      9 N          63.2900   85.8122   12.8700 N.ar    1  UNL1       -0.3219
     10 C          62.6336   84.9473   11.8352 C.3     1  UNL1        0.1276
     11 C          62.6005   83.4583   12.0136 C.3     1  UNL1        0.1182
     12 N          63.2239   82.8343   13.2268 N.am    1  UNL1       -0.2729
     13 C          63.8804   83.6993   14.2617 C.2     1  UNL1        0.2650
     14 O          64.5038   83.0752   15.4750 O.2     1  UNL1       -0.2683
     15 O          64.4682   91.5482   14.0603 O.3     1  UNL1       -0.4791
     16 N          66.3941   94.2611   11.0304 N.3     1  UNL1       -0.2737
     17 C          66.6947   94.4336   12.4897 C.3     1  UNL1        0.0758
     18 C          66.0527   93.5293   13.4998 C.3     1  UNL1        0.0609
     19 C          65.1102   92.4525   13.0503 C.3     1  UNL1        0.1687
     20 C          64.8096   92.2800   11.5909 C.3     1  UNL1        0.0609
     21 C          65.4516   93.1843   10.5809 C.3     1  UNL1        0.0758
     22 C          67.9277   94.5916    8.9594 C.3     1  UNL1        0.0173
     23 C          67.0361   95.1654   10.0204 C.3     1  UNL1        0.0576
     24 C          66.7866   96.6437   10.0715 C.3     1  UNL1        0.0173
     25 C          63.1909   81.3453   13.4052 C.3     1  UNL1        0.0938
     26 C          61.8947   80.6552   13.7112 C.3     1  UNL1        0.0199
     27 C          60.4631   80.7171   14.1547 C.3     1  UNL1        0.0018
     28 C          61.0812   79.3979   13.7976 C.3     1  UNL1        0.0018
@<TRIPOS>BOND
     1    22    23    1
     2    23    24    1
     3    23    16    1
     4    16    17    1
     5    17    18    1
     6    18    19    1
     7    19    15    1
     8    15     1    1
     9     1     2   ar
    10     2     3   ar
    11     3     4   ar
    12     4     5   ar
    13     5     6   ar
    14     5     7   ar
    15     7     8   ar
    16     8     9   ar
    17     9    10    1
    18    10    11    1
    19    11    12    1
    20    12    25    1
    21    25    26    1
    22    26    27    1
    23    27    28    1
    24    12    13   am
    25    13    14    2
    26    19    20    1
    27    20    21    1
    28    21    16    1
    29     6     1   ar
    30    13     8    1
    31     9     4   ar
    32    28    26    1
@<TRIPOS>MOLECULE
*****
 28 32 0 0 0
SMALL
GASTEIGER

@<TRIPOS>ATOM
      1 C          63.8178   87.7019   14.4789 C.ar    1  UNL1        0.1385
      2 C          63.2418   87.8031   13.0977 C.ar    1  UNL1        0.0384
      3 C          63.4966   89.0255   12.2665 C.ar    1  UNL1        0.0203
      4 C          64.3275   90.1467   12.8167 C.ar    1  UNL1        0.0602
      5 C          64.9035   90.0455   14.1979 C.ar    1  UNL1        0.0204
      6 C          64.6486   88.8231   15.0291 C.ar    1  UNL1        0.0384
      7 C          65.6776   91.3010   14.4705 C.ar    1  UNL1        0.0234
      8 C          65.5800   92.1783   13.2576 C.ar    1  UNL1        0.1143
      9 N          64.7456   91.4648   12.2355 N.ar    1  UNL1       -0.3219
     10 C          64.4743   92.1076   10.9077 C.3     1  UNL1        0.1276
     11 C          65.0375   93.4638   10.6019 C.3     1  UNL1        0.1182
     12 N          65.8719   94.1773   11.6241 N.am    1  UNL1       -0.2729
     13 C          66.1432   93.5344   12.9519 C.2     1  UNL1        0.2650
     14 O          66.9777   94.2479   13.9741 O.2     1  UNL1       -0.2683
     15 O          63.5630   86.4795   15.3101 O.3     1  UNL1       -0.4791
     16 N          62.9803   82.4862   13.3191 N.3     1  UNL1       -0.2737
     17 C          62.1628   82.8504   14.5229 C.3     1  UNL1        0.0758
     18 C          62.3571   84.1816   15.1866 C.3     1  UNL1        0.0609
     19 C          63.3687   85.1484   14.6465 C.3     1  UNL1        0.1687
     20 C          64.1862   84.7841   13.4426 C.3     1  UNL1        0.0609
     21 C          63.9919   83.4530   12.7790 C.3     1  UNL1        0.0758
     22 C          62.3089   79.9802   13.4566 C.3     1  UNL1        0.0173
     23 C          62.7860   81.1551   12.6555 C.3     1  UNL1        0.0576
     24 C          63.0689   80.9990   11.1906 C.3     1  UNL1        0.0173
     25 C          66.4351   95.5336   11.3183 C.3     1  UNL1        0.0938
     26 C          66.9727   95.8314    9.9500 C.3     1  UNL1        0.0199
     27 C          67.3452   96.8232    8.8882 C.3     1  UNL1        0.0018
     28 C          67.5312   95.3553    8.6418 C.3     1  UNL1        0.0018
@<TRIPOS>BOND
     1    22    23    1
     2    23    24    1
     3    23    16    1
     4    16    17    1
     5    17    18    1
     6    18    19    1
     7    19    15    1
     8    15     1    1
     9     1     2   ar
    10     2     3   ar
    11     3     4   ar
    12     4     5   ar
    13     5     6   ar
    14     5     7   ar
    15     7     8   ar
    16     8     9   ar
    17     9    10    1
    18    10    11    1
    19    11    12    1
    20    12    25    1
    21    25    26    1
    22    26    27    1
    23    27    28    1
    24    12    13   am
    25    13    14    2
    26    19    20    1
    27    20    21    1
    28    21    16    1
    29     6     1   ar
    30    13     8    1
    31     9     4   ar
    32    28    26    1
@<TRIPOS>MOLECULE
*****
 28 32 0 0 0
SMALL
GASTEIGER

@<TRIPOS>ATOM
      1 C          64.2170   89.2183   14.1027 C.ar    1  UNL1        0.1385
      2 C          63.5249   89.1488   12.7738 C.ar    1  UNL1        0.0384
      3 C          63.1305   87.8193   12.2022 C.ar    1  UNL1        0.0203
      4 C          63.4282   86.5592   12.9596 C.ar    1  UNL1        0.0602
      5 C          64.1203   86.6287   14.2885 C.ar    1  UNL1        0.0204
      6 C          64.5147   87.9582   14.8601 C.ar    1  UNL1        0.0384
      7 C          64.2810   85.2282   14.8011 C.ar    1  UNL1        0.0234
      8 C          63.6882   84.2932   13.7890 C.ar    1  UNL1        0.1143
      9 N          63.1611   85.1158   12.6508 N.ar    1  UNL1       -0.3219
     10 C          62.5062   84.4442   11.4804 C.3     1  UNL1        0.1276
     11 C          62.3783   82.9501   11.4481 C.3     1  UNL1        0.1182
     12 N          62.9054   82.1275   12.5863 N.am    1  UNL1       -0.2729
     13 C          63.5604   82.7990   13.7567 C.2     1  UNL1        0.2650
     14 O          64.0875   81.9763   14.8949 O.2     1  UNL1       -0.2683
     15 O          64.6114   90.5478   14.6744 O.3     1  UNL1       -0.4791
     16 N          66.0339   93.8354   11.9508 N.3     1  UNL1       -0.2737
     17 C          65.1075   92.7774   11.4290 C.3     1  UNL1        0.0758
     18 C          64.6333   91.6815   12.3369 C.3     1  UNL1        0.0609
     19 C          65.0856   91.6437   13.7665 C.3     1  UNL1        0.1687
     20 C          66.0120   92.7017   14.2884 C.3     1  UNL1        0.0609
     21 C          66.4862   93.7976   13.3805 C.3     1  UNL1        0.0758
     22 C          67.3151   94.5982    9.8232 C.3     1  UNL1        0.0173
     23 C          66.5080   94.9313   11.0429 C.3     1  UNL1        0.0576
     24 C          66.1751   96.3603   11.3547 C.3     1  UNL1        0.0173
     25 C          62.7775   80.6332   12.5540 C.3     1  UNL1        0.0938
     26 C          62.8174   79.9052   11.2431 C.3     1  UNL1        0.0199
     27 C          62.8067   78.6197   10.4703 C.3     1  UNL1        0.0018
     28 C          62.8974   79.9298    9.7455 C.3     1  UNL1        0.0018
@<TRIPOS>BOND
     1    22    23    1
     2    23    24    1
     3    23    16    1
     4    16    17    1
     5    17    18    1
     6    18    19    1
     7    19    15    1
     8    15     1    1
     9     1     2   ar
    10     2     3   ar
    11     3     4   ar
    12     4     5   ar
    13     5     6   ar
    14     5     7   ar
    15     7     8   ar
    16     8     9   ar
    17     9    10    1
    18    10    11    1
    19    11    12    1
    20    12    25    1
    21    25    26    1
    22    26    27    1
    23    27    28    1
    24    12    13   am
    25    13    14    2
    26    19    20    1
    27    20    21    1
    28    21    16    1
    29     6     1   ar
    30    13     8    1
    31     9     4   ar
    32    28    26    1
@<TRIPOS>MOLECULE
*****
 28 32 0 0 0
SMALL
GASTEIGER

@<TRIPOS>ATOM
      1 C          58.9078   90.3583    5.9205 C.ar    1  UNL1        0.1385
      2 C          57.9558   91.3234    5.2785 C.ar    1  UNL1        0.0384
      3 C          58.4327   92.2315    4.1841 C.ar    1  UNL1        0.0203
      4 C          59.8617   92.1746    3.7317 C.ar    1  UNL1        0.0602
      5 C          60.8137   91.2095    4.3736 C.ar    1  UNL1        0.0204
      6 C          60.3368   90.3013    5.4680 C.ar    1  UNL1        0.0384
      7 C          62.1544   91.3786    3.7226 C.ar    1  UNL1        0.0234
      8 C          62.0310   92.4483    2.6782 C.ar    1  UNL1        0.1143
      9 N          60.6140   92.9403    2.6838 N.ar    1  UNL1       -0.3219
     10 C          60.1919   94.0218    1.7342 C.3     1  UNL1        0.1276
     11 C          61.1867   94.6114    0.7789 C.3     1  UNL1        0.1182
     12 N          62.6037   94.1195    0.7733 N.am    1  UNL1       -0.2729
     13 C          63.0259   93.0379    1.7230 C.2     1  UNL1        0.2650
     14 O          64.4430   92.5459    1.7174 O.2     1  UNL1       -0.2683
     15 O          58.4309   89.4501    7.0149 O.3     1  UNL1       -0.4791
     16 N          61.3134   86.6348    9.0187 N.3     1  UNL1       -0.2737
     17 C          60.3929   86.1289    7.9479 C.3     1  UNL1        0.0758
     18 C          59.4320   87.0674    7.2800 C.3     1  UNL1        0.0609
     19 C          59.3917   88.5117    7.6828 C.3     1  UNL1        0.1687
     20 C          60.3123   89.0176    8.7537 C.3     1  UNL1        0.0609
     21 C          61.2731   88.0792    9.4216 C.3     1  UNL1        0.0758
     22 C          62.2618   85.5472   11.1791 C.3     1  UNL1        0.0173
     23 C          62.2742   85.6964    9.6866 C.3     1  UNL1        0.0576
     24 C          63.2475   84.9072    8.8620 C.3     1  UNL1        0.0173
     25 C          63.5986   94.7091   -0.1821 C.3     1  UNL1        0.0938
     26 C          63.6108   94.2718   -1.6169 C.3     1  UNL1        0.0199
     27 C          63.2890   93.2492   -2.6660 C.3     1  UNL1        0.0018
     28 C          63.9537   94.5370   -3.0529 C.3     1  UNL1        0.0018
@<TRIPOS>BOND
     1    22    23    1
     2    23    24    1
     3    23    16    1
     4    16    17    1
     5    17    18    1
     6    18    19    1
     7    19    15    1
     8    15     1    1
     9     1     2   ar
    10     2     3   ar
    11     3     4   ar
    12     4     5   ar
    13     5     6   ar
    14     5     7   ar
    15     7     8   ar
    16     8     9   ar
    17     9    10    1
    18    10    11    1
    19    11    12    1
    20    12    25    1
    21    25    26    1
    22    26    27    1
    23    27    28    1
    24    12    13   am
    25    13    14    2
    26    19    20    1
    27    20    21    1
    28    21    16    1
    29     6     1   ar
    30    13     8    1
    31     9     4   ar
    32    28    26    1
@<TRIPOS>MOLECULE
*****
 28 32 0 0 0
SMALL
GASTEIGER

@<TRIPOS>ATOM
      1 C          63.6420   90.1496   13.1861 C.ar    1  UNL1        0.1385
      2 C          62.9868   89.7653   11.8927 C.ar    1  UNL1        0.0384
      3 C          62.7676   88.3183   11.5641 C.ar    1  UNL1        0.0203
      4 C          63.2036   87.2556   12.5288 C.ar    1  UNL1        0.0602
      5 C          63.8588   87.6400   13.8222 C.ar    1  UNL1        0.0204
      6 C          64.0781   89.0870   14.1508 C.ar    1  UNL1        0.0384
      7 C          64.1803   86.3807   14.5711 C.ar    1  UNL1        0.0234
      8 C          63.7238   85.2180   13.7405 C.ar    1  UNL1        0.1143
      9 N          63.1201   85.7587   12.4783 N.ar    1  UNL1       -0.3219
     10 C          62.5724   84.8183   11.4461 C.3     1  UNL1        0.1276
     11 C          62.6283   83.3371   11.6761 C.3     1  UNL1        0.1182
     12 N          63.2320   82.7964   12.9383 N.am    1  UNL1       -0.2729
     13 C          63.7797   83.7369   13.9706 C.2     1  UNL1        0.2650
     14 O          64.3834   83.1962   15.2328 O.2     1  UNL1       -0.2683
     15 O          63.8613   91.5967   13.5148 O.3     1  UNL1       -0.4791
     16 N          67.7357   92.9174   15.3843 N.3     1  UNL1       -0.2737
     17 C          66.5260   92.6953   16.2429 C.3     1  UNL1        0.0758
     18 C          65.2345   92.2551   15.6198 C.3     1  UNL1        0.0609
     19 C          65.1527   92.0369   14.1380 C.3     1  UNL1        0.1687
     20 C          66.3625   92.2590   13.2793 C.3     1  UNL1        0.0609
     21 C          67.6540   92.6992   13.9025 C.3     1  UNL1        0.0758
     22 C          69.3540   94.8184   16.1035 C.3     1  UNL1        0.0173
     23 C          69.0271   93.3576   16.0075 C.3     1  UNL1        0.0576
     24 C          69.9918   92.3369   16.5346 C.3     1  UNL1        0.0173
     25 C          63.2880   81.3151   13.1684 C.3     1  UNL1        0.0938
     26 C          62.0571   80.5768   13.6040 C.3     1  UNL1        0.0199
     27 C          61.3246   79.2855   13.8187 C.3     1  UNL1        0.0018
     28 C          60.6577   80.5892   14.1439 C.3     1  UNL1        0.0018
@<TRIPOS>BOND
     1    22    23    1
     2    23    24    1
     3    23    16    1
     4    16    17    1
     5    17    18    1
     6    18    19    1
     7    19    15    1
     8    15     1    1
     9     1     2   ar
    10     2     3   ar
    11     3     4   ar
    12     4     5   ar
    13     5     6   ar
    14     5     7   ar
    15     7     8   ar
    16     8     9   ar
    17     9    10    1
    18    10    11    1
    19    11    12    1
    20    12    25    1
    21    25    26    1
    22    26    27    1
    23    27    28    1
    24    12    13   am
    25    13    14    2
    26    19    20    1
    27    20    21    1
    28    21    16    1
    29     6     1   ar
    30    13     8    1
    31     9     4   ar
    32    28    26    1
@<TRIPOS>MOLECULE
*****
 28 32 0 0 0
SMALL
GASTEIGER

@<TRIPOS>ATOM
      1 C          59.3320   89.2306    7.2133 C.ar    1  UNL1        0.1385
      2 C          59.1838   87.7439    7.0805 C.ar    1  UNL1        0.0384
      3 C          59.8663   86.8320    8.0565 C.ar    1  UNL1        0.0203
      4 C          60.6969   87.4068    9.1654 C.ar    1  UNL1        0.0602
      5 C          60.8451   88.8935    9.2982 C.ar    1  UNL1        0.0204
      6 C          60.1626   89.8054    8.3222 C.ar    1  UNL1        0.0384
      7 C          61.7217   89.1678   10.4841 C.ar    1  UNL1        0.0234
      8 C          62.1153   87.8506   11.0842 C.ar    1  UNL1        0.1143
      9 N          61.4820   86.7622   10.2692 N.ar    1  UNL1       -0.3219
     10 C          61.7019   85.3250   10.6374 C.3     1  UNL1        0.1276
     11 C          62.5553   84.9760   11.8206 C.3     1  UNL1        0.1182
     12 N          63.1886   86.0644   12.6356 N.am    1  UNL1       -0.2729
     13 C          62.9686   87.5018   12.2674 C.2     1  UNL1        0.2650
     14 O          63.6021   88.5902   13.0824 O.2     1  UNL1       -0.2683
     15 O          58.6495   90.1425    6.2373 O.3     1  UNL1       -0.4791
     16 N          61.0758   92.4065    3.1980 N.3     1  UNL1       -0.2737
     17 C          61.7229   91.3393    4.0300 C.3     1  UNL1        0.0758
     18 C          60.9141   90.5846    5.0432 C.3     1  UNL1        0.0609
     19 C          59.4583   90.8972    5.2242 C.3     1  UNL1        0.1687
     20 C          58.8112   91.9644    4.3920 C.3     1  UNL1        0.0609
     21 C          59.6200   92.7190    3.3790 C.3     1  UNL1        0.0758
     22 C          61.2124   94.1354    1.2635 C.3     1  UNL1        0.0173
     23 C          61.8846   93.1611    2.1849 C.3     1  UNL1        0.0576
     24 C          63.3657   92.9414    2.0931 C.3     1  UNL1        0.0173
     25 C          64.0420   85.7154   13.8189 C.3     1  UNL1        0.0938
     26 C          63.7511   84.4774   14.6144 C.3     1  UNL1        0.0199
     27 C          62.8071   83.6580   15.4435 C.3     1  UNL1        0.0018
     28 C          64.1913   83.1526   15.1630 C.3     1  UNL1        0.0018
@<TRIPOS>BOND
     1    22    23    1
     2    23    24    1
     3    23    16    1
     4    16    17    1
     5    17    18    1
     6    18    19    1
     7    19    15    1
     8    15     1    1
     9     1     2   ar
    10     2     3   ar
    11     3     4   ar
    12     4     5   ar
    13     5     6   ar
    14     5     7   ar
    15     7     8   ar
    16     8     9   ar
    17     9    10    1
    18    10    11    1
    19    11    12    1
    20    12    25    1
    21    25    26    1
    22    26    27    1
    23    27    28    1
    24    12    13   am
    25    13    14    2
    26    19    20    1
    27    20    21    1
    28    21    16    1
    29     6     1   ar
    30    13     8    1
    31     9     4   ar
    32    28    26    1
@<TRIPOS>MOLECULE
*****
 28 32 0 0 0
SMALL
GASTEIGER

@<TRIPOS>ATOM
      1 C          59.5057   88.9868    7.8070 C.ar    1  UNL1        0.1385
      2 C          60.0153   89.8903    8.8904 C.ar    1  UNL1        0.0384
      3 C          60.8730   89.3349    9.9885 C.ar    1  UNL1        0.0203
      4 C          61.2210   87.8758   10.0032 C.ar    1  UNL1        0.0602
      5 C          60.7113   86.9723    8.9198 C.ar    1  UNL1        0.0204
      6 C          59.8537   87.5278    7.8217 C.ar    1  UNL1        0.0384
      7 C          61.2158   85.5870    9.1961 C.ar    1  UNL1        0.0234
      8 C          62.0373   85.6344   10.4502 C.ar    1  UNL1        0.1143
      9 N          62.0405   87.0489   10.9491 N.ar    1  UNL1       -0.3219
     10 C          62.7892   87.4013   12.2001 C.3     1  UNL1        0.1276
     11 C          63.5347   86.3391   12.9524 C.3     1  UNL1        0.1182
     12 N          63.5316   84.9245   12.4535 N.am    1  UNL1       -0.2729
     13 C          62.7828   84.5721   11.2024 C.2     1  UNL1        0.2650
     14 O          62.7797   83.1574   10.7035 O.2     1  UNL1       -0.2683
     15 O          58.6480   89.5422    6.7088 O.3     1  UNL1       -0.4791
     16 N          60.4408   92.2798    3.6199 N.3     1  UNL1       -0.2737
     17 C          58.9721   92.3445    3.9173 C.3     1  UNL1        0.0758
     18 C          58.3744   91.4319    4.9470 C.3     1  UNL1        0.0609
     19 C          59.2456   90.4548    5.6792 C.3     1  UNL1        0.1687
     20 C          60.7144   90.3901    5.3818 C.3     1  UNL1        0.0609
     21 C          61.3120   91.3027    4.3522 C.3     1  UNL1        0.0758
     22 C          62.4245   92.9378    2.0766 C.3     1  UNL1        0.0173
     23 C          61.0384   93.1924    2.5903 C.3     1  UNL1        0.0576
     24 C          60.2499   94.3595    2.0744 C.3     1  UNL1        0.0173
     25 C          64.2771   83.8622   13.2057 C.3     1  UNL1        0.0938
     26 C          63.5715   82.6083   13.6299 C.3     1  UNL1        0.0199
     27 C          63.5484   81.1152   13.7713 C.3     1  UNL1        0.0018
     28 C          62.3726   81.9297   14.2231 C.3     1  UNL1        0.0018
@<TRIPOS>BOND
     1    22    23    1
     2    23    24    1
     3    23    16    1
     4    16    17    1
     5    17    18    1
     6    18    19    1
     7    19    15    1
     8    15     1    1
     9     1     2   ar
    10     2     3   ar
    11     3     4   ar
    12     4     5   ar
    13     5     6   ar
    14     5     7   ar
    15     7     8   ar
    16     8     9   ar
    17     9    10    1
    18    10    11    1
    19    11    12    1
    20    12    25    1
    21    25    26    1
    22    26    27    1
    23    27    28    1
    24    12    13   am
    25    13    14    2
    26    19    20    1
    27    20    21    1
    28    21    16    1
    29     6     1   ar
    30    13     8    1
    31     9     4   ar
    32    28    26    1
@<TRIPOS>MOLECULE
*****
 28 32 0 0 0
SMALL
GASTEIGER

@<TRIPOS>ATOM
      1 C          59.1419   89.9963    6.0595 C.ar    1  UNL1        0.1385
      2 C          58.1024   90.9625    5.5739 C.ar    1  UNL1        0.0384
      3 C          58.4555   91.9839    4.5338 C.ar    1  UNL1        0.0203
      4 C          59.8482   92.0392    3.9793 C.ar    1  UNL1        0.0602
      5 C          60.8877   91.0730    4.4649 C.ar    1  UNL1        0.0204
      6 C          60.5345   90.0515    5.5050 C.ar    1  UNL1        0.0384
      7 C          62.1675   91.3656    3.7393 C.ar    1  UNL1        0.0234
      8 C          61.9189   92.5127    2.8053 C.ar    1  UNL1        0.1143
      9 N          60.4855   92.9290    2.9535 N.ar    1  UNL1       -0.3219
     10 C          59.9459   94.0645    2.1355 C.3     1  UNL1        0.1276
     11 C          60.8396   94.7837    1.1691 C.3     1  UNL1        0.1182
     12 N          62.2730   94.3674    1.0208 N.am    1  UNL1       -0.2729
     13 C          62.8127   93.2319    1.8389 C.2     1  UNL1        0.2650
     14 O          64.2462   92.8156    1.6907 O.2     1  UNL1       -0.2683
     15 O          58.7887   88.9748    7.0997 O.3     1  UNL1       -0.4791
     16 N          61.6379   88.1255   10.4777 N.3     1  UNL1       -0.2737
     17 C          61.3711   89.5411   10.0596 C.3     1  UNL1        0.0758
     18 C          60.4213   89.8242    8.9336 C.3     1  UNL1        0.0609
     19 C          59.7384   88.6917    8.2257 C.3     1  UNL1        0.1687
     20 C          60.0053   87.2761    8.6439 C.3     1  UNL1        0.0609
     21 C          60.9550   86.9930    9.7698 C.3     1  UNL1        0.0758
     22 C          63.2736   88.9747   12.3089 C.3     1  UNL1        0.0173
     23 C          62.5876   87.8424   11.6037 C.3     1  UNL1        0.0576
     24 C          62.8513   86.4270   12.0246 C.3     1  UNL1        0.0173
     25 C          63.1668   95.0867    0.0544 C.3     1  UNL1        0.0938
     26 C          64.3158   95.9061    0.5628 C.3     1  UNL1        0.0199
     27 C          65.7315   96.3830    0.4273 C.3     1  UNL1        0.0018
     28 C          64.8902   96.8483    1.5787 C.3     1  UNL1        0.0018
@<TRIPOS>BOND
     1    22    23    1
     2    23    24    1
     3    23    16    1
     4    16    17    1
     5    17    18    1
     6    18    19    1
     7    19    15    1
     8    15     1    1
     9     1     2   ar
    10     2     3   ar
    11     3     4   ar
    12     4     5   ar
    13     5     6   ar
    14     5     7   ar
    15     7     8   ar
    16     8     9   ar
    17     9    10    1
    18    10    11    1
    19    11    12    1
    20    12    25    1
    21    25    26    1
    22    26    27    1
    23    27    28    1
    24    12    13   am
    25    13    14    2
    26    19    20    1
    27    20    21    1
    28    21    16    1
    29     6     1   ar
    30    13     8    1
    31     9     4   ar
    32    28    26    1
@<TRIPOS>MOLECULE
*****
 28 32 0 0 0
SMALL
GASTEIGER

@<TRIPOS>ATOM
      1 C          62.3431   88.6721   10.7076 C.ar    1  UNL1        0.1385
      2 C          62.5749   89.7911    9.7359 C.ar    1  UNL1        0.0384
      3 C          63.4049   90.9739   10.1383 C.ar    1  UNL1        0.0203
      4 C          64.0032   91.0377   11.5123 C.ar    1  UNL1        0.0602
      5 C          63.7715   89.9188   12.4840 C.ar    1  UNL1        0.0204
      6 C          62.9414   88.7360   12.0816 C.ar    1  UNL1        0.0384
      7 C          64.4841   90.2576   13.7596 C.ar    1  UNL1        0.0234
      8 C          65.1564   91.5859   13.5764 C.ar    1  UNL1        0.1143
      9 N          64.8592   92.0681   12.1874 N.ar    1  UNL1       -0.3219
     10 C          65.4063   93.3830   11.7169 C.3     1  UNL1        0.1276
     11 C          66.2507   94.2159   12.6353 C.3     1  UNL1        0.1182
     12 N          66.5479   93.7337   14.0242 N.am    1  UNL1       -0.2729
     13 C          66.0007   92.4187   14.4948 C.2     1  UNL1        0.2650
     14 O          66.2980   91.9365   15.8838 O.2     1  UNL1       -0.2683
     15 O          61.5130   87.4892   10.3053 O.3     1  UNL1       -0.4791
     16 N          63.0261   83.3184   11.0570 N.3     1  UNL1       -0.2737
     17 C          63.1708   83.9350    9.6973 C.3     1  UNL1        0.0758
     18 C          62.6664   85.3253    9.4467 C.3     1  UNL1        0.0609
     19 C          62.0174   86.0990   10.5558 C.3     1  UNL1        0.1687
     20 C          61.8727   85.4823   11.9156 C.3     1  UNL1        0.0609
     21 C          62.3770   84.0921   12.1661 C.3     1  UNL1        0.0758
     22 C          64.3128   81.6270   12.5514 C.3     1  UNL1        0.0173
     23 C          63.5304   81.9282   11.3075 C.3     1  UNL1        0.0576
     24 C          63.2525   80.8391   10.3142 C.3     1  UNL1        0.0173
     25 C          67.3923   94.5665   14.9427 C.3     1  UNL1        0.0938
     26 C          68.6018   93.9683   15.5981 C.3     1  UNL1        0.0199
     27 C          69.3429   92.7681   16.1080 C.3     1  UNL1        0.0018
     28 C          69.9554   94.1325   16.2232 C.3     1  UNL1        0.0018
@<TRIPOS>BOND
     1    22    23    1
     2    23    24    1
     3    23    16    1
     4    16    17    1
     5    17    18    1
     6    18    19    1
     7    19    15    1
     8    15     1    1
     9     1     2   ar
    10     2     3   ar
    11     3     4   ar
    12     4     5   ar
    13     5     6   ar
    14     5     7   ar
    15     7     8   ar
    16     8     9   ar
    17     9    10    1
    18    10    11    1
    19    11    12    1
    20    12    25    1
    21    25    26    1
    22    26    27    1
    23    27    28    1
    24    12    13   am
    25    13    14    2
    26    19    20    1
    27    20    21    1
    28    21    16    1
    29     6     1   ar
    30    13     8    1
    31     9     4   ar
    32    28    26    1
