@<TRIPOS>MOLECULE
*****
 40 42 0 0 0
SMALL
GASTEIGER

@<TRIPOS>ATOM
      1 C          63.3004   89.8317   13.6207 C.3     1  UNL1        0.1524
      2 N          62.7665   88.8548   11.2733 N.am    1  UNL1       -0.3048
      3 C          62.3011   89.4488   12.5697 C.2     1  UNL1        0.2383
      4 O          60.8365   89.6599   12.8151 O.2     1  UNL1       -0.2736
      5 H          63.7278   88.7163   11.1123 H       1  UNL1        0.1494
      6 C          61.3686   89.9943    9.7268 C.3     1  UNL1        0.0001
      7 C          61.1361   88.5237    9.5451 C.3     1  UNL1        0.0015
      8 C          62.0938   89.1047   10.5427 C.3     1  UNL1        0.0001
      9 C          60.1150   88.6074    8.4495 C.3     1  UNL1        0.0017
     10 C          59.7127   87.2096    8.0830 C.3     1  UNL1        0.0001
     11 C          60.4852   86.2620    8.9520 C.3     1  UNL1        0.0016
     12 C          61.3649   87.0741    9.8557 C.3     1  UNL1        0.0165
     13 C          62.3078   86.5319   10.8886 C.3     1  UNL1        0.0016
     14 C          61.7672   88.4719   10.2223 C.3     1  UNL1        0.0715
     15 C          60.9947   89.4195    9.3532 C.3     1  UNL1        0.0196
     16 N          63.3060   91.2241   14.1787 N.3     1  UNL1       -0.1620
     17 H          62.7646   91.1973   15.0427 H       1  UNL1        0.1504
     18 S          64.6068   91.8967   14.5035 S.O2    1  UNL1        0.0964
     19 O          64.2084   91.9697   15.9478 O.2     1  UNL1       -0.1413
     20 O          64.9795   91.9456   13.8006 O.2     1  UNL1       -0.1413
     21 N          65.9076   92.5693   14.8284 N.3     1  UNL1       -0.1655
     22 H          66.4503   91.9081   15.3839 H       1  UNL1        0.1502
     23 C          66.8034   93.0434   13.7226 C.3     1  UNL1        0.1126
     24 C          68.1887   92.4842   13.5877 C.2     1  UNL1        0.0662
     25 O          69.2175   92.7667   14.6422 O.co2   1  UNL1       -0.5478
     26 O          68.5453   91.6426   12.3984 O.co2   1  UNL1       -0.5478
     27 C          66.3139   94.0767   12.7516 C.3     1  UNL1        0.0232
     28 C          66.1299   93.7202   11.3063 C.3     1  UNL1        0.0032
     29 C          67.0349   94.3121   10.2667 C.3     1  UNL1        0.0169
     30 C          67.8621   93.4154    9.3941 C.3     1  UNL1        0.0651
     31 N          69.2737   93.0867    9.7809 N.3     1  UNL1       -0.3211
     32 H          69.8421   93.9328    9.7438 H       1  UNL1        0.1189
     33 H          69.6512   92.3947    9.1336 H       1  UNL1        0.1189
     34 C          64.2943   88.8221   14.1138 C.3     1  UNL1        0.0268
     35 C          63.9105   87.8598   15.1986 C.3     1  UNL1        0.0019
     36 C          63.2369   88.3607   16.4418 C.3     1  UNL1        0.0001
     37 C          62.8531   87.3985   17.5266 C.3     1  UNL1        0.0000
     38 C          63.1429   85.9353   17.3682 C.3     1  UNL1        0.0000
     39 C          63.8165   85.4344   16.1251 C.3     1  UNL1        0.0000
     40 C          64.2003   86.3966   15.0403 C.3     1  UNL1        0.0001
@<TRIPOS>UNITY_ATOM_ATTR
25 1
charge -1
@<TRIPOS>BOND
     1     6     7    1
     2     7     8    1
     3     7     9    1
     4     9    10    1
     5    10    11    1
     6    11    12    1
     7    12    13    1
     8    12    14    1
     9    14     2    1
    10     2     3   am
    11     3     4    2
    12     3     1    1
    13     1    34    1
    14    34    35    1
    15    35    36    1
    16    36    37    1
    17    37    38    1
    18    38    39    1
    19    39    40    1
    20     1    16    1
    21    16    18    1
    22    18    19    2
    23    18    20    2
    24    18    21    1
    25    21    23    1
    26    23    27    1
    27    27    28    1
    28    28    29    1
    29    29    30    1
    30    30    31    1
    31    23    24    1
    32    24    25   ar
    33    24    26   ar
    34    14    15    1
    35    12     7    1
    36    40    35    1
    37    15     9    1
    38     2     5    1
    39    16    17    1
    40    21    22    1
    41    31    32    1
    42    31    33    1
@<TRIPOS>MOLECULE
*****
 40 42 0 0 0
SMALL
GASTEIGER

@<TRIPOS>ATOM
      1 C          63.0710   90.0405   12.7127 C.3     1  UNL1        0.1524
      2 N          61.7108   88.1328   11.5900 N.am    1  UNL1       -0.3048
      3 C          62.6183   89.3218   11.4764 C.2     1  UNL1        0.2383
      4 O          63.0729   89.7920   10.1266 O.2     1  UNL1       -0.2736
      5 H          61.4124   87.8242   12.4760 H       1  UNL1        0.1494
      6 C          62.4411   86.2648   10.3167 C.3     1  UNL1        0.0001
      7 C          61.2110   86.8090    9.6530 C.3     1  UNL1        0.0015
      8 C          61.8192   87.3876   10.8960 C.3     1  UNL1        0.0001
      9 C          61.1350   85.8300    8.5191 C.3     1  UNL1        0.0017
     10 C          59.9402   86.1811    7.6828 C.3     1  UNL1        0.0001
     11 C          59.2779   87.3771    8.2999 C.3     1  UNL1        0.0016
     12 C          60.0632   87.7652    9.5175 C.3     1  UNL1        0.0165
     13 C          59.7550   88.9087   10.4380 C.3     1  UNL1        0.0016
     14 C          61.2580   87.4141   10.3538 C.3     1  UNL1        0.0715
     15 C          61.9204   86.2181    9.7367 C.3     1  UNL1        0.0196
     16 N          62.9067   89.3964   14.0574 N.3     1  UNL1       -0.1620
     17 H          61.9485   89.0495   14.1026 H       1  UNL1        0.1504
     18 S          63.7984   88.2587   14.4582 S.O2    1  UNL1        0.0964
     19 O          63.6452   88.6463   15.8991 O.2     1  UNL1       -0.1413
     20 O          63.9920   87.9126   13.7667 O.2     1  UNL1       -0.1413
     21 N          64.6901   87.1211   14.8589 N.3     1  UNL1       -0.1655
     22 H          65.1007   87.3715   15.7584 H       1  UNL1        0.1502
     23 C          64.1225   85.7410   15.0112 C.3     1  UNL1        0.1126
     24 C          63.0163   85.4891   15.9925 C.2     1  UNL1        0.0662
     25 O          63.1616   85.9352   17.4173 O.co2   1  UNL1       -0.5478
     26 O          61.7649   84.7910   15.5492 O.co2   1  UNL1       -0.5478
     27 C          64.6610   84.6128   14.1821 C.3     1  UNL1        0.0232
     28 C          64.0238   84.2786   12.8660 C.3     1  UNL1        0.0032
     29 C          63.1736   83.0499   12.7348 C.3     1  UNL1        0.0169
     30 C          63.2806   81.9518   13.7510 C.3     1  UNL1        0.0651
     31 N          62.3441   81.9200   14.9222 N.3     1  UNL1       -0.3211
     32 H          62.5223   82.7255   15.5220 H       1  UNL1        0.1189
     33 H          62.4923   81.0616   15.4529 H       1  UNL1        0.1189
     34 C          63.6883   91.4033   12.6043 C.3     1  UNL1        0.0268
     35 C          65.1105   91.6185   13.0297 C.3     1  UNL1        0.0019
     36 C          66.1215   92.1190   12.0411 C.3     1  UNL1        0.0001
     37 C          67.5438   92.3343   12.4665 C.3     1  UNL1        0.0000
     38 C          67.9550   92.0490   13.8805 C.3     1  UNL1        0.0000
     39 C          66.9440   91.5485   14.8691 C.3     1  UNL1        0.0000
     40 C          65.5218   91.3333   14.4438 C.3     1  UNL1        0.0001
@<TRIPOS>UNITY_ATOM_ATTR
25 1
charge -1
@<TRIPOS>BOND
     1     6     7    1
     2     7     8    1
     3     7     9    1
     4     9    10    1
     5    10    11    1
     6    11    12    1
     7    12    13    1
     8    12    14    1
     9    14     2    1
    10     2     3   am
    11     3     4    2
    12     3     1    1
    13     1    34    1
    14    34    35    1
    15    35    36    1
    16    36    37    1
    17    37    38    1
    18    38    39    1
    19    39    40    1
    20     1    16    1
    21    16    18    1
    22    18    19    2
    23    18    20    2
    24    18    21    1
    25    21    23    1
    26    23    27    1
    27    27    28    1
    28    28    29    1
    29    29    30    1
    30    30    31    1
    31    23    24    1
    32    24    25   ar
    33    24    26   ar
    34    14    15    1
    35    12     7    1
    36    40    35    1
    37    15     9    1
    38     2     5    1
    39    16    17    1
    40    21    22    1
    41    31    32    1
    42    31    33    1
@<TRIPOS>MOLECULE
*****
 40 42 0 0 0
SMALL
GASTEIGER

@<TRIPOS>ATOM
      1 C          62.8744   87.6323   12.0202 C.3     1  UNL1        0.1524
      2 N          63.4447   85.2345   12.8418 N.am    1  UNL1       -0.3048
      3 C          62.4627   86.2110   12.2654 C.2     1  UNL1        0.2383
      4 O          61.0690   85.7661   11.9344 O.2     1  UNL1       -0.2736
      5 H          64.3594   85.5265   13.0591 H       1  UNL1        0.1494
      6 C          62.4807   84.0029   14.6302 C.3     1  UNL1        0.0001
      7 C          62.7050   83.0481   13.4953 C.3     1  UNL1        0.0015
      8 C          63.0499   84.5070   13.4449 C.3     1  UNL1        0.0001
      9 C          62.1743   81.8103   14.1558 C.3     1  UNL1        0.0017
     10 C          62.2967   80.6763   13.1816 C.3     1  UNL1        0.0001
     11 C          62.9030   81.2132   11.9190 C.3     1  UNL1        0.0016
     12 C          63.1554   82.6791   12.1130 C.3     1  UNL1        0.0165
     13 C          63.7532   83.6121   11.1020 C.3     1  UNL1        0.0016
     14 C          63.0330   83.8131   13.0871 C.3     1  UNL1        0.0715
     15 C          62.4266   83.2762   14.3497 C.3     1  UNL1        0.0196
     16 N          63.5952   88.3995   13.0888 N.3     1  UNL1       -0.1620
     17 H          64.5711   88.1047   13.0556 H       1  UNL1        0.1504
     18 S          63.5949   89.8993   13.0651 S.O2    1  UNL1        0.0964
     19 O          62.8382   89.9197   14.3600 O.2     1  UNL1       -0.1413
     20 O          63.9851   90.0816   12.3943 O.2     1  UNL1       -0.1413
     21 N          63.5946   91.3991   13.0413 N.3     1  UNL1       -0.1655
     22 H          63.3229   91.7083   13.9745 H       1  UNL1        0.1502
     23 C          64.8473   92.1438   12.6860 C.3     1  UNL1        0.1126
     24 C          65.8581   92.4610   13.7480 C.2     1  UNL1        0.0662
     25 O          66.1290   93.8877   14.1233 O.co2   1  UNL1       -0.5478
     26 O          66.5979   91.3514   14.4346 O.co2   1  UNL1       -0.5478
     27 C          65.0893   92.5713   11.2686 C.3     1  UNL1        0.0232
     28 C          66.4922   92.7116   10.7567 C.3     1  UNL1        0.0032
     29 C          66.8566   93.8693    9.8753 C.3     1  UNL1        0.0169
     30 C          68.1656   93.8713    9.1427 C.3     1  UNL1        0.0651
     31 N          69.3194   93.0687    9.6666 N.3     1  UNL1       -0.3211
     32 H          69.6236   93.4541   10.5607 H       1  UNL1        0.1189
     33 H          70.0905   93.1067    9.0000 H       1  UNL1        0.1189
     34 C          62.5655   88.2865   10.7062 C.3     1  UNL1        0.0268
     35 C          61.7804   87.5446    9.6652 C.3     1  UNL1        0.0019
     36 C          60.3710   87.9541    9.3555 C.3     1  UNL1        0.0001
     37 C          59.5860   87.2123    8.3146 C.3     1  UNL1        0.0000
     38 C          60.2104   86.0610    7.5834 C.3     1  UNL1        0.0000
     39 C          61.6198   85.6515    7.8931 C.3     1  UNL1        0.0000
     40 C          62.4048   86.3933    8.9340 C.3     1  UNL1        0.0001
@<TRIPOS>UNITY_ATOM_ATTR
25 1
charge -1
@<TRIPOS>BOND
     1     6     7    1
     2     7     8    1
     3     7     9    1
     4     9    10    1
     5    10    11    1
     6    11    12    1
     7    12    13    1
     8    12    14    1
     9    14     2    1
    10     2     3   am
    11     3     4    2
    12     3     1    1
    13     1    34    1
    14    34    35    1
    15    35    36    1
    16    36    37    1
    17    37    38    1
    18    38    39    1
    19    39    40    1
    20     1    16    1
    21    16    18    1
    22    18    19    2
    23    18    20    2
    24    18    21    1
    25    21    23    1
    26    23    27    1
    27    27    28    1
    28    28    29    1
    29    29    30    1
    30    30    31    1
    31    23    24    1
    32    24    25   ar
    33    24    26   ar
    34    14    15    1
    35    12     7    1
    36    40    35    1
    37    15     9    1
    38     2     5    1
    39    16    17    1
    40    21    22    1
    41    31    32    1
    42    31    33    1
@<TRIPOS>MOLECULE
*****
 40 42 0 0 0
SMALL
GASTEIGER

@<TRIPOS>ATOM
      1 C          63.0621   89.4353   12.6683 C.3     1  UNL1        0.1524
      2 N          62.3028   88.6221   10.3206 N.am    1  UNL1       -0.3048
      3 C          61.9685   89.0322   11.7242 C.2     1  UNL1        0.2383
      4 O          60.5406   89.0391   12.1836 O.2     1  UNL1       -0.2736
      5 H          63.2400   88.6176   10.0191 H       1  UNL1        0.1494
      6 C          60.4945   89.6974    9.2169 C.3     1  UNL1        0.0001
      7 C          60.4698   88.2516    8.8181 C.3     1  UNL1        0.0015
      8 C          61.4822   88.8474    9.7508 C.3     1  UNL1        0.0001
      9 C          59.2734   88.3044    7.9149 C.3     1  UNL1        0.0017
     10 C          59.0400   86.9251    7.3736 C.3     1  UNL1        0.0001
     11 C          60.0921   86.0198    7.9422 C.3     1  UNL1        0.0016
     12 C          60.9758   86.8396    8.8350 C.3     1  UNL1        0.0165
     13 C          62.1579   86.3359    9.6088 C.3     1  UNL1        0.0016
     14 C          61.2092   88.2189    9.3764 C.3     1  UNL1        0.0715
     15 C          60.1571   89.1243    8.8077 C.3     1  UNL1        0.0196
     16 N          63.8965   88.3861   13.3415 N.3     1  UNL1       -0.1620
     17 H          64.0243   88.6868   14.3078 H       1  UNL1        0.1504
     18 S          63.4189   86.9650   13.3898 S.O2    1  UNL1        0.0964
     19 O          63.6545   86.9362   14.8709 O.2     1  UNL1       -0.1413
     20 O          63.2360   86.7972   12.6323 O.2     1  UNL1       -0.1413
     21 N          62.9414   85.5439   13.4381 N.3     1  UNL1       -0.1655
     22 H          62.2322   85.4467   12.7114 H       1  UNL1        0.1502
     23 C          63.9147   84.4187   13.2465 C.3     1  UNL1        0.1126
     24 C          64.8182   84.0090   14.3715 C.2     1  UNL1        0.0662
     25 O          64.3744   82.9578   15.3452 O.co2   1  UNL1       -0.5478
     26 O          66.1657   84.6504   14.5229 O.co2   1  UNL1       -0.5478
     27 C          63.9844   83.7033   11.9299 C.3     1  UNL1        0.0232
     28 C          63.9532   82.2042   11.8883 C.3     1  UNL1        0.0032
     29 C          62.6753   81.4725   12.1735 C.3     1  UNL1        0.0169
     30 C          62.5279   80.6875   13.4432 C.3     1  UNL1        0.0651
     31 N          61.9952   81.3518   14.6780 N.3     1  UNL1       -0.3211
     32 H          62.6549   82.0633   14.9928 H       1  UNL1        0.1189
     33 H          61.8707   80.6548   15.4123 H       1  UNL1        0.1189
     34 C          63.3213   90.8877   12.9393 C.3     1  UNL1        0.0268
     35 C          64.7199   91.3643   13.1985 C.3     1  UNL1        0.0019
     36 C          65.4551   92.1398   12.1459 C.3     1  UNL1        0.0001
     37 C          66.8536   92.6164   12.4051 C.3     1  UNL1        0.0000
     38 C          67.5168   92.3174   13.7169 C.3     1  UNL1        0.0000
     39 C          66.7815   91.5418   14.7694 C.3     1  UNL1        0.0000
     40 C          65.3831   91.0653   14.5103 C.3     1  UNL1        0.0001
@<TRIPOS>UNITY_ATOM_ATTR
25 1
charge -1
@<TRIPOS>BOND
     1     6     7    1
     2     7     8    1
     3     7     9    1
     4     9    10    1
     5    10    11    1
     6    11    12    1
     7    12    13    1
     8    12    14    1
     9    14     2    1
    10     2     3   am
    11     3     4    2
    12     3     1    1
    13     1    34    1
    14    34    35    1
    15    35    36    1
    16    36    37    1
    17    37    38    1
    18    38    39    1
    19    39    40    1
    20     1    16    1
    21    16    18    1
    22    18    19    2
    23    18    20    2
    24    18    21    1
    25    21    23    1
    26    23    27    1
    27    27    28    1
    28    28    29    1
    29    29    30    1
    30    30    31    1
    31    23    24    1
    32    24    25   ar
    33    24    26   ar
    34    14    15    1
    35    12     7    1
    36    40    35    1
    37    15     9    1
    38     2     5    1
    39    16    17    1
    40    21    22    1
    41    31    32    1
    42    31    33    1
@<TRIPOS>MOLECULE
*****
 40 42 0 0 0
SMALL
GASTEIGER

@<TRIPOS>ATOM
      1 C          62.7257   87.5874   11.8822 C.3     1  UNL1        0.1524
      2 N          63.4150   85.1766   12.5623 N.am    1  UNL1       -0.3048
      3 C          62.4259   86.1190   11.9430 C.2     1  UNL1        0.2383
      4 O          61.1370   85.5929   11.3845 O.2     1  UNL1       -0.2736
      5 H          64.2610   85.5219   12.9289 H       1  UNL1        0.1494
      6 C          63.5901   83.3189   11.0918 C.3     1  UNL1        0.0001
      7 C          63.0302   82.8152   12.3889 C.3     1  UNL1        0.0015
      8 C          63.3934   84.2476   12.1318 C.3     1  UNL1        0.0001
      9 C          62.8924   81.3704   12.0100 C.3     1  UNL1        0.0017
     10 C          62.3305   80.6334   13.1894 C.3     1  UNL1        0.0001
     11 C          62.1209   81.6227   14.2973 C.3     1  UNL1        0.0016
     12 C          62.5533   82.9711   13.8025 C.3     1  UNL1        0.0165
     13 C          62.5156   84.2508   14.5843 C.3     1  UNL1        0.0016
     14 C          63.1153   83.7082   12.6231 C.3     1  UNL1        0.0715
     15 C          63.3248   82.7189   11.5152 C.3     1  UNL1        0.0196
     16 N          63.3185   88.2819   13.0724 N.3     1  UNL1       -0.1620
     17 H          64.2387   87.8693   13.2259 H       1  UNL1        0.1504
     18 S          63.5086   89.7697   13.0549 S.O2    1  UNL1        0.0964
     19 O          62.6790   89.8902   14.2988 O.2     1  UNL1       -0.1413
     20 O          63.9608   89.8988   12.4113 O.2     1  UNL1       -0.1413
     21 N          63.6986   91.2575   13.0375 N.3     1  UNL1       -0.1655
     22 H          63.1124   91.6379   13.7805 H       1  UNL1        0.1502
     23 C          65.0677   91.8409   13.2244 C.3     1  UNL1        0.1126
     24 C          65.6562   92.7270   12.1668 C.2     1  UNL1        0.0662
     25 O          66.9143   93.4946   12.4462 O.co2   1  UNL1       -0.5478
     26 O          64.9867   92.8455   10.8297 O.co2   1  UNL1       -0.5478
     27 C          65.8485   91.5382   14.4690 C.3     1  UNL1        0.0232
     28 C          66.1074   92.6213   15.4739 C.3     1  UNL1        0.0032
     29 C          67.4138   92.6653   16.2095 C.3     1  UNL1        0.0169
     30 C          68.6532   93.1385   15.5095 C.3     1  UNL1        0.0651
     31 N          69.1980   92.3660   14.3448 N.3     1  UNL1       -0.3211
     32 H          69.5203   91.4523   14.6637 H       1  UNL1        0.1189
     33 H          69.9786   92.8773   13.9329 H       1  UNL1        0.1189
     34 C          62.4326   88.3615   10.6312 C.3     1  UNL1        0.0268
     35 C          61.5665   87.7615    9.5635 C.3     1  UNL1        0.0019
     36 C          62.0514   86.5763    8.7825 C.3     1  UNL1        0.0001
     37 C          61.1853   85.9763    7.7149 C.3     1  UNL1        0.0000
     38 C          59.8343   86.5616    7.4282 C.3     1  UNL1        0.0000
     39 C          59.3494   87.7468    8.2093 C.3     1  UNL1        0.0000
     40 C          60.2154   88.3468    9.2769 C.3     1  UNL1        0.0001
@<TRIPOS>UNITY_ATOM_ATTR
25 1
charge -1
@<TRIPOS>BOND
     1     6     7    1
     2     7     8    1
     3     7     9    1
     4     9    10    1
     5    10    11    1
     6    11    12    1
     7    12    13    1
     8    12    14    1
     9    14     2    1
    10     2     3   am
    11     3     4    2
    12     3     1    1
    13     1    34    1
    14    34    35    1
    15    35    36    1
    16    36    37    1
    17    37    38    1
    18    38    39    1
    19    39    40    1
    20     1    16    1
    21    16    18    1
    22    18    19    2
    23    18    20    2
    24    18    21    1
    25    21    23    1
    26    23    27    1
    27    27    28    1
    28    28    29    1
    29    29    30    1
    30    30    31    1
    31    23    24    1
    32    24    25   ar
    33    24    26   ar
    34    14    15    1
    35    12     7    1
    36    40    35    1
    37    15     9    1
    38     2     5    1
    39    16    17    1
    40    21    22    1
    41    31    32    1
    42    31    33    1
@<TRIPOS>MOLECULE
*****
 40 42 0 0 0
SMALL
GASTEIGER

@<TRIPOS>ATOM
      1 C          62.9599   87.6372   12.2890 C.3     1  UNL1        0.1524
      2 N          63.5373   85.1386   12.7051 N.am    1  UNL1       -0.3048
      3 C          62.5553   86.1929   12.2877 C.2     1  UNL1        0.2383
      4 O          61.1688   85.8027   11.8689 O.2     1  UNL1       -0.2736
      5 H          64.4473   85.3946   12.9800 H       1  UNL1        0.1494
      6 C          63.4945   83.3616   11.1288 C.3     1  UNL1        0.0001
      7 C          62.9689   82.8247   12.4271 C.3     1  UNL1        0.0015
      8 C          63.4235   84.2400   12.2271 C.3     1  UNL1        0.0001
      9 C          62.7039   81.4178   11.9793 C.3     1  UNL1        0.0017
     10 C          62.1527   80.6555   13.1476 C.3     1  UNL1        0.0001
     11 C          62.0770   81.5913   14.3175 C.3     1  UNL1        0.0016
     12 C          62.5815   82.9319   13.8722 C.3     1  UNL1        0.0165
     13 C          62.6811   84.1634   14.7227 C.3     1  UNL1        0.0016
     14 C          63.1327   83.6942   12.7038 C.3     1  UNL1        0.0715
     15 C          63.2084   82.7584   11.5339 C.3     1  UNL1        0.0196
     16 N          63.6518   88.2213   13.4850 N.3     1  UNL1       -0.1620
     17 H          64.5990   87.8431   13.4910 H       1  UNL1        0.1504
     18 S          63.7786   89.7092   13.6257 S.O2    1  UNL1        0.0964
     19 O          62.4788   89.7494   14.3733 O.2     1  UNL1       -0.1413
     20 O          64.4651   89.8799   13.2582 O.2     1  UNL1       -0.1413
     21 N          63.9055   91.1972   13.7663 N.3     1  UNL1       -0.1655
     22 H          63.0575   91.5225   14.2306 H       1  UNL1        0.1502
     23 C          65.0631   91.7834   14.5188 C.3     1  UNL1        0.1126
     24 C          64.9064   92.1589   15.9625 C.2     1  UNL1        0.0662
     25 O          63.5893   91.9568   16.6514 O.co2   1  UNL1       -0.5478
     26 O          66.0667   92.7365   16.7175 O.co2   1  UNL1       -0.5478
     27 C          66.3776   91.9942   13.8274 C.3     1  UNL1        0.0232
     28 C          66.5319   93.1058   12.8322 C.3     1  UNL1        0.0032
     29 C          66.5209   92.8039   11.3630 C.3     1  UNL1        0.0169
     30 C          65.2374   92.8821   10.5908 C.3     1  UNL1        0.0651
     31 N          64.2192   91.7877   10.7157 N.3     1  UNL1       -0.3211
     32 H          64.5991   90.9240   10.3283 H       1  UNL1        0.1189
     33 H          63.3760   92.0478   10.2040 H       1  UNL1        0.1189
     34 C          62.6727   88.4976   11.0944 C.3     1  UNL1        0.0268
     35 C          61.8183   87.9716    9.9792 C.3     1  UNL1        0.0019
     36 C          62.2468   86.7527    9.2170 C.3     1  UNL1        0.0001
     37 C          61.3925   86.2267    8.1019 C.3     1  UNL1        0.0000
     38 C          60.1097   86.9195    7.7490 C.3     1  UNL1        0.0000
     39 C          59.6813   88.1383    8.5112 C.3     1  UNL1        0.0000
     40 C          60.5355   88.6644    9.6263 C.3     1  UNL1        0.0001
@<TRIPOS>UNITY_ATOM_ATTR
25 1
charge -1
@<TRIPOS>BOND
     1     6     7    1
     2     7     8    1
     3     7     9    1
     4     9    10    1
     5    10    11    1
     6    11    12    1
     7    12    13    1
     8    12    14    1
     9    14     2    1
    10     2     3   am
    11     3     4    2
    12     3     1    1
    13     1    34    1
    14    34    35    1
    15    35    36    1
    16    36    37    1
    17    37    38    1
    18    38    39    1
    19    39    40    1
    20     1    16    1
    21    16    18    1
    22    18    19    2
    23    18    20    2
    24    18    21    1
    25    21    23    1
    26    23    27    1
    27    27    28    1
    28    28    29    1
    29    29    30    1
    30    30    31    1
    31    23    24    1
    32    24    25   ar
    33    24    26   ar
    34    14    15    1
    35    12     7    1
    36    40    35    1
    37    15     9    1
    38     2     5    1
    39    16    17    1
    40    21    22    1
    41    31    32    1
    42    31    33    1
@<TRIPOS>MOLECULE
*****
 40 42 0 0 0
SMALL
GASTEIGER

@<TRIPOS>ATOM
      1 C          63.3402   90.0098   13.2891 C.3     1  UNL1        0.1524
      2 N          62.6538   89.1155   10.9485 N.am    1  UNL1       -0.3048
      3 C          62.2778   89.5577   12.3316 C.2     1  UNL1        0.2383
      4 O          60.8395   89.5479   12.7572 O.2     1  UNL1       -0.2736
      5 H          63.5978   89.1219   10.6692 H       1  UNL1        0.1494
      6 C          61.0162   90.1527    9.5748 C.3     1  UNL1        0.0001
      7 C          60.8940   88.6705    9.3802 C.3     1  UNL1        0.0015
      8 C          61.8927   89.3171   10.2935 C.3     1  UNL1        0.0001
      9 C          59.7655   88.6819    8.3920 C.3     1  UNL1        0.0017
     10 C          59.4503   87.2603    8.0318 C.3     1  UNL1        0.0001
     11 C          60.3840   86.3702    8.7974 C.3     1  UNL1        0.0016
     12 C          61.2762   87.2418    9.6307 C.3     1  UNL1        0.0165
     13 C          62.3603   86.7678   10.5526 C.3     1  UNL1        0.0016
     14 C          61.5914   88.6634    9.9909 C.3     1  UNL1        0.0715
     15 C          60.6577   89.5534    9.2253 C.3     1  UNL1        0.0196
     16 N          63.4811   89.3401   14.6240 N.3     1  UNL1       -0.1620
     17 H          62.5498   89.3119   15.0390 H       1  UNL1        0.1504
     18 S          64.0360   87.9492   14.7104 S.O2    1  UNL1        0.0964
     19 O          63.4793   87.8132   16.0966 O.2     1  UNL1       -0.1413
     20 O          64.3945   87.8405   14.0068 O.2     1  UNL1       -0.1413
     21 N          64.5909   86.5583   14.7968 N.3     1  UNL1       -0.1655
     22 H          64.8900   86.4201   15.7622 H       1  UNL1        0.1502
     23 C          63.7299   85.3837   14.4378 C.3     1  UNL1        0.1126
     24 C          63.2099   84.4780   15.5145 C.2     1  UNL1        0.0662
     25 O          62.0708   84.9227   16.3832 O.co2   1  UNL1       -0.5478
     26 O          63.8289   83.1277   15.7224 O.co2   1  UNL1       -0.5478
     27 C          63.3890   85.1148   13.0019 C.3     1  UNL1        0.0232
     28 C          62.9852   83.7354   12.5726 C.3     1  UNL1        0.0032
     29 C          64.0260   82.7589   12.1111 C.3     1  UNL1        0.0169
     30 C          64.2591   82.5485   10.6443 C.3     1  UNL1        0.0651
     31 N          63.8295   83.5948    9.6591 N.3     1  UNL1       -0.3211
     32 H          62.8121   83.6669    9.6616 H       1  UNL1        0.1189
     33 H          64.1496   83.3351    8.7261 H       1  UNL1        0.1189
     34 C          64.2617   91.1316   12.9118 C.3     1  UNL1        0.0268
     35 C          65.3249   91.5830   13.8689 C.3     1  UNL1        0.0019
     36 C          64.9598   91.9510   15.2765 C.3     1  UNL1        0.0001
     37 C          66.0230   92.4023   16.2335 C.3     1  UNL1        0.0000
     38 C          67.4513   92.4856   15.7830 C.3     1  UNL1        0.0000
     39 C          67.8164   92.1175   14.3754 C.3     1  UNL1        0.0000
     40 C          66.7532   91.6662   13.4184 C.3     1  UNL1        0.0001
@<TRIPOS>UNITY_ATOM_ATTR
25 1
charge -1
@<TRIPOS>BOND
     1     6     7    1
     2     7     8    1
     3     7     9    1
     4     9    10    1
     5    10    11    1
     6    11    12    1
     7    12    13    1
     8    12    14    1
     9    14     2    1
    10     2     3   am
    11     3     4    2
    12     3     1    1
    13     1    34    1
    14    34    35    1
    15    35    36    1
    16    36    37    1
    17    37    38    1
    18    38    39    1
    19    39    40    1
    20     1    16    1
    21    16    18    1
    22    18    19    2
    23    18    20    2
    24    18    21    1
    25    21    23    1
    26    23    27    1
    27    27    28    1
    28    28    29    1
    29    29    30    1
    30    30    31    1
    31    23    24    1
    32    24    25   ar
    33    24    26   ar
    34    14    15    1
    35    12     7    1
    36    40    35    1
    37    15     9    1
    38     2     5    1
    39    16    17    1
    40    21    22    1
    41    31    32    1
    42    31    33    1
@<TRIPOS>MOLECULE
*****
 40 42 0 0 0
SMALL
GASTEIGER

@<TRIPOS>ATOM
      1 C          63.9777   85.5072   13.5450 C.3     1  UNL1        0.1524
      2 N          62.9992   86.6056   11.4036 N.am    1  UNL1       -0.3048
      3 C          62.8167   85.7612   12.6298 C.2     1  UNL1        0.2383
      4 O          61.4734   85.1708   12.9408 O.2     1  UNL1       -0.2736
      5 H          63.8809   86.9931   11.1995 H       1  UNL1        0.1494
      6 C          61.1398   88.0834   11.3466 C.3     1  UNL1        0.0001
      7 C          61.0639   87.2168   10.1247 C.3     1  UNL1        0.0015
      8 C          62.1464   87.1168   11.1582 C.3     1  UNL1        0.0001
      9 C          59.8109   87.7946    9.5364 C.3     1  UNL1        0.0017
     10 C          59.5183   87.0636    8.2597 C.3     1  UNL1        0.0001
     11 C          60.5904   86.0340    8.0589 C.3     1  UNL1        0.0016
     12 C          61.5456   86.1287    9.2116 C.3     1  UNL1        0.0165
     13 C          62.7681   85.2835    9.4153 C.3     1  UNL1        0.0016
     14 C          61.8383   86.8597   10.4883 C.3     1  UNL1        0.0715
     15 C          60.7661   87.8893   10.6890 C.3     1  UNL1        0.0196
     16 N          64.3653   86.5339   14.5676 N.3     1  UNL1       -0.1620
     17 H          65.3828   86.6012   14.5464 H       1  UNL1        0.1504
     18 S          63.8365   87.9337   14.4628 S.O2    1  UNL1        0.0964
     19 O          63.3976   87.8752   15.8959 O.2     1  UNL1       -0.1413
     20 O          63.9949   88.1439   13.7104 O.2     1  UNL1       -0.1413
     21 N          63.3078   89.3335   14.3580 N.3     1  UNL1       -0.1655
     22 H          62.5743   89.4246   15.0609 H       1  UNL1        0.1502
     23 C          64.2322   90.5002   14.5431 C.3     1  UNL1        0.1126
     24 C          64.2142   91.2749   15.8275 C.2     1  UNL1        0.0662
     25 O          65.2371   92.3443   16.0727 O.co2   1  UNL1       -0.5478
     26 O          63.1733   90.9803   16.8666 O.co2   1  UNL1       -0.5478
     27 C          65.1747   90.8922   13.4439 C.3     1  UNL1        0.0232
     28 C          64.7181   91.8249   12.3615 C.3     1  UNL1        0.0032
     29 C          65.5163   93.0547   12.0451 C.3     1  UNL1        0.0169
     30 C          66.6320   93.4790   12.9535 C.3     1  UNL1        0.0651
     31 N          66.3240   94.1878   14.2391 N.3     1  UNL1       -0.3211
     32 H          65.9140   95.0992   14.0351 H       1  UNL1        0.1189
     33 H          67.1843   94.3137   14.7725 H       1  UNL1        0.1189
     34 C          64.7511   84.2265   13.4376 C.3     1  UNL1        0.0268
     35 C          64.1302   83.0280   12.7831 C.3     1  UNL1        0.0019
     36 C          63.3377   82.0526   13.6020 C.3     1  UNL1        0.0001
     37 C          62.7168   80.8542   12.9476 C.3     1  UNL1        0.0000
     38 C          62.8884   80.6311   11.4743 C.3     1  UNL1        0.0000
     39 C          63.6809   81.6065   10.6553 C.3     1  UNL1        0.0000
     40 C          64.3018   82.8049   11.3097 C.3     1  UNL1        0.0001
@<TRIPOS>UNITY_ATOM_ATTR
25 1
charge -1
@<TRIPOS>BOND
     1     6     7    1
     2     7     8    1
     3     7     9    1
     4     9    10    1
     5    10    11    1
     6    11    12    1
     7    12    13    1
     8    12    14    1
     9    14     2    1
    10     2     3   am
    11     3     4    2
    12     3     1    1
    13     1    34    1
    14    34    35    1
    15    35    36    1
    16    36    37    1
    17    37    38    1
    18    38    39    1
    19    39    40    1
    20     1    16    1
    21    16    18    1
    22    18    19    2
    23    18    20    2
    24    18    21    1
    25    21    23    1
    26    23    27    1
    27    27    28    1
    28    28    29    1
    29    29    30    1
    30    30    31    1
    31    23    24    1
    32    24    25   ar
    33    24    26   ar
    34    14    15    1
    35    12     7    1
    36    40    35    1
    37    15     9    1
    38     2     5    1
    39    16    17    1
    40    21    22    1
    41    31    32    1
    42    31    33    1
@<TRIPOS>MOLECULE
*****
 40 42 0 0 0
SMALL
GASTEIGER

@<TRIPOS>ATOM
      1 C          63.9003   85.6265   13.4547 C.3     1  UNL1        0.1524
      2 N          62.9624   86.6071   11.2393 N.am    1  UNL1       -0.3048
      3 C          62.7563   85.8315   12.5066 C.2     1  UNL1        0.2383
      4 O          61.4063   85.2610   12.8256 O.2     1  UNL1       -0.2736
      5 H          63.8485   86.9816   11.0299 H       1  UNL1        0.1494
      6 C          61.0369   87.9950   11.1351 C.3     1  UNL1        0.0001
      7 C          61.0389   87.1347    9.9064 C.3     1  UNL1        0.0015
      8 C          62.0937   87.0788   10.9714 C.3     1  UNL1        0.0001
      9 C          59.7778   87.6564    9.2841 C.3     1  UNL1        0.0017
     10 C          59.5586   86.9216    7.9949 C.3     1  UNL1        0.0001
     11 C          60.6843   85.9457    7.8204 C.3     1  UNL1        0.0016
     12 C          61.5992   86.0774    9.0018 C.3     1  UNL1        0.0165
     13 C          62.8540   85.2901    9.2373 C.3     1  UNL1        0.0016
     14 C          61.8184   86.8122   10.2910 C.3     1  UNL1        0.0715
     15 C          60.6927   87.7881   10.4655 C.3     1  UNL1        0.0196
     16 N          64.2522   86.6943   14.4478 N.3     1  UNL1       -0.1620
     17 H          65.2698   86.7101   14.5150 H       1  UNL1        0.1504
     18 S          63.8116   88.1092   14.2153 S.O2    1  UNL1        0.0964
     19 O          63.4486   88.2344   15.6654 O.2     1  UNL1       -0.1413
     20 O          63.9421   88.2266   13.4378 O.2     1  UNL1       -0.1413
     21 N          63.3710   89.5241   13.9829 N.3     1  UNL1       -0.1655
     22 H          62.9194   89.8368   14.8424 H       1  UNL1        0.1502
     23 C          64.3790   90.5729   13.6170 C.3     1  UNL1        0.1126
     24 C          64.2103   91.3679   12.3562 C.2     1  UNL1        0.0662
     25 O          63.1282   91.0079   11.3818 O.co2   1  UNL1       -0.5478
     26 O          65.1236   92.5228   12.0699 O.co2   1  UNL1       -0.5478
     27 C          65.5558   90.8269   14.5120 C.3     1  UNL1        0.0232
     28 C          65.6029   92.0663   15.3554 C.3     1  UNL1        0.0032
     29 C          66.8898   92.4847   16.0026 C.3     1  UNL1        0.0169
     30 C          67.9450   93.1790   15.1937 C.3     1  UNL1        0.0651
     31 N          68.9474   92.3747   14.4202 N.3     1  UNL1       -0.3211
     32 H          69.5416   91.8578   15.0684 H       1  UNL1        0.1189
     33 H          69.5229   93.0001   13.8563 H       1  UNL1        0.1189
     34 C          64.6926   84.3536   13.4099 C.3     1  UNL1        0.0268
     35 C          64.0223   83.0659   13.0319 C.3     1  UNL1        0.0019
     36 C          63.9483   82.6536   11.5916 C.3     1  UNL1        0.0001
     37 C          63.2781   81.3660   11.2135 C.3     1  UNL1        0.0000
     38 C          62.6819   80.4907   12.2758 C.3     1  UNL1        0.0000
     39 C          62.7560   80.9030   13.7161 C.3     1  UNL1        0.0000
     40 C          63.4262   82.1906   14.0942 C.3     1  UNL1        0.0001
@<TRIPOS>UNITY_ATOM_ATTR
25 1
charge -1
@<TRIPOS>BOND
     1     6     7    1
     2     7     8    1
     3     7     9    1
     4     9    10    1
     5    10    11    1
     6    11    12    1
     7    12    13    1
     8    12    14    1
     9    14     2    1
    10     2     3   am
    11     3     4    2
    12     3     1    1
    13     1    34    1
    14    34    35    1
    15    35    36    1
    16    36    37    1
    17    37    38    1
    18    38    39    1
    19    39    40    1
    20     1    16    1
    21    16    18    1
    22    18    19    2
    23    18    20    2
    24    18    21    1
    25    21    23    1
    26    23    27    1
    27    27    28    1
    28    28    29    1
    29    29    30    1
    30    30    31    1
    31    23    24    1
    32    24    25   ar
    33    24    26   ar
    34    14    15    1
    35    12     7    1
    36    40    35    1
    37    15     9    1
    38     2     5    1
    39    16    17    1
    40    21    22    1
    41    31    32    1
    42    31    33    1
