@<TRIPOS>MOLECULE
*****
 60 67 0 0 0
SMALL
GASTEIGER

@<TRIPOS>ATOM
      1 N          58.3353   95.9034   -6.1587 N.3     1  UNL1       -0.1862
      2 C          59.4878   95.9120   -7.1187 C.3     1  UNL1        0.1775
      3 C          60.8955   95.8982   -6.6007 C.2     1  UNL1        0.2452
      4 O          62.0480   95.9068   -7.5608 O.2     1  UNL1       -0.2732
      5 N          61.1506   95.8760   -5.1228 N.am    1  UNL1       -0.2541
      6 C          59.9981   95.8674   -4.1628 C.3     1  UNL1        0.1908
      7 C          60.2532   95.8452   -2.6848 C.3     1  UNL1        0.1359
      8 N          61.6609   95.8314   -2.1668 N.am    1  UNL1       -0.2705
      9 C          62.8134   95.8400   -3.1269 C.2     1  UNL1        0.2445
     10 O          64.2211   95.8263   -2.6089 O.2     1  UNL1       -0.2731
     11 C          62.5583   95.8623   -4.6048 C.3     1  UNL1        0.1577
     12 N          58.5904   95.8811   -4.6808 N.am    1  UNL1       -0.1863
     13 C          57.4379   95.8726   -3.7207 C.2     1  UNL1        0.3191
     14 O          57.6930   95.8503   -2.2428 O.2     1  UNL1       -0.2512
     15 N          56.0302   95.8863   -4.2387 N.am    1  UNL1       -0.2836
     16 H          55.8628   95.9009   -5.2088 H       1  UNL1        0.1513
     17 C          56.9276   95.9171   -6.6767 C.3     1  UNL1        0.1188
     18 C          56.3843   93.3875   -6.9128 C.2     1  UNL1       -0.0034
     19 C          56.4190   94.7688   -7.4967 C.2     1  UNL1       -0.0071
     20 C          61.9160   95.8092   -0.6889 C.3     1  UNL1        0.1217
     21 C          61.1383   94.8773    0.1926 C.ar    1  UNL1        0.0135
     22 C          59.6445   94.8063    0.0758 C.ar    1  UNL1       -0.0012
     23 C          58.8668   93.8745    0.9571 C.ar    1  UNL1       -0.0002
     24 C          59.5828   93.0138    1.9553 C.ar    1  UNL1        0.0016
     25 C          61.0766   93.0848    2.0721 C.ar    1  UNL1        0.0214
     26 C          62.0496   92.3633    2.9567 C.ar    1  UNL1        0.0722
     27 C          63.4287   92.8491    2.6220 C.ar    1  UNL1        0.0805
     28 N          63.3080   93.8709    1.5306 N.ar    1  UNL1       -0.3241
     29 C          64.4419   94.6162    0.8913 C.3     1  UNL1        0.1305
     30 C          61.8543   94.0166    1.1907 C.ar    1  UNL1        0.0577
     31 C          61.7042   91.3361    3.9940 C.2     1  UNL1        0.2510
     32 O          62.5245   90.0860    4.1139 O.2     1  UNL1       -0.2698
     33 N          60.5384   91.5591    4.9112 N.am    1  UNL1       -0.2803
     34 H          60.0001   92.3796    4.8324 H       1  UNL1        0.1552
     35 C          60.1930   90.5321    5.9484 C.ar    1  UNL1        0.0538
     36 C          59.0630   89.5752    5.7089 C.ar    1  UNL1        0.0180
     37 C          58.7174   88.5481    6.7461 C.ar    1  UNL1        0.0413
     38 C          59.5018   88.4780    8.0227 C.ar    1  UNL1        0.1725
     39 C          60.6318   89.4349    8.2621 C.ar    1  UNL1        0.1736
     40 C          60.9774   90.4620    7.2250 C.ar    1  UNL1        0.0547
     41 O          61.4163   89.3648    9.5387 O.3     1  UNL1       -0.4683
     42 C          61.0708   88.3378   10.5759 C.3     1  UNL1        0.2526
     43 C          59.9408   87.3808   10.3365 C.3     1  UNL1        0.2526
     44 O          59.1563   87.4509    9.0599 O.3     1  UNL1       -0.4684
     45 C          63.7108   95.8708   -5.5648 C.3     1  UNL1        0.0556
     46 C          64.3486   94.5790   -5.9825 C.ar    1  UNL1       -0.0198
     47 C          63.8885   93.2856   -5.3781 C.ar    1  UNL1       -0.0011
     48 C          64.5263   91.9938   -5.7958 C.ar    1  UNL1        0.0363
     49 C          65.6242   91.9954   -6.8178 C.ar    1  UNL1        0.1337
     50 O          66.2620   90.7036   -7.2355 O.3     1  UNL1       -0.5055
     51 C          66.0844   93.2889   -7.4222 C.ar    1  UNL1        0.0363
     52 C          65.4465   94.5807   -7.0046 C.ar    1  UNL1       -0.0011
     53 H          65.9746   89.8956   -6.8579 H       1  UNL1        0.2922
     54 C          54.8777   95.8778   -3.2787 C.3     1  UNL1        0.1177
     55 C          53.4766   96.0452   -3.7875 C.ar    1  UNL1       -0.0025
     56 C          53.2276   96.2165   -5.2567 C.ar    1  UNL1       -0.0026
     57 C          51.8265   96.3839   -5.7654 C.ar    1  UNL1       -0.0003
     58 C          50.6743   96.3800   -4.8050 C.ar    1  UNL1       -0.0000
     59 C          50.9233   96.2086   -3.3357 C.ar    1  UNL1       -0.0003
     60 C          52.3244   96.0412   -2.8269 C.ar    1  UNL1       -0.0026
@<TRIPOS>BOND
     1    18    19    2
     2    19    17    1
     3    17     1    1
     4     1     2    1
     5     2     3    1
     6     3     4    2
     7     3     5   am
     8     5     6    1
     9     6     7    1
    10     7     8    1
    11     8    20    1
    12    20    21    1
    13    21    22   ar
    14    22    23   ar
    15    23    24   ar
    16    24    25   ar
    17    25    26   ar
    18    26    31    1
    19    31    32    2
    20    31    33   am
    21    33    35    1
    22    35    36   ar
    23    36    37   ar
    24    37    38   ar
    25    38    39   ar
    26    39    40   ar
    27    39    41    1
    28    41    42    1
    29    42    43    1
    30    43    44    1
    31    26    27   ar
    32    27    28   ar
    33    28    29    1
    34    28    30   ar
    35     8     9   am
    36     9    10    2
    37     9    11    1
    38    11    45    1
    39    45    46    1
    40    46    47   ar
    41    47    48   ar
    42    48    49   ar
    43    49    50    1
    44    49    51   ar
    45    51    52   ar
    46     6    12    1
    47    12    13   am
    48    13    14    2
    49    13    15   am
    50    15    54    1
    51    54    55    1
    52    55    56   ar
    53    56    57   ar
    54    57    58   ar
    55    58    59   ar
    56    59    60   ar
    57    12     1    1
    58    60    55   ar
    59    11     5    1
    60    52    46   ar
    61    30    21   ar
    62    30    25   ar
    63    40    35   ar
    64    44    38    1
    65    33    34    1
    66    50    53    1
    67    15    16    1
