@<TRIPOS>MOLECULE
*****
 27 30 0 0 0
SMALL
GASTEIGER

@<TRIPOS>ATOM
      1 O          61.2917   89.8673   10.7897 O.3     1  UNL1       -0.4700
      2 C          62.4555   90.3625   11.5960 C.ar    1  UNL1        0.1578
      3 C          63.4966   91.2314   10.9549 C.ar    1  UNL1        0.0401
      4 C          64.6605   91.7267   11.7613 C.ar    1  UNL1        0.0223
      5 C          64.7831   91.3531   13.2088 C.ar    1  UNL1        0.0815
      6 N          63.7420   90.4842   13.8500 N.ar    1  UNL1       -0.2407
      7 C          62.5782   89.9889   13.0436 C.ar    1  UNL1        0.1356
      8 C          65.9470   91.8483   14.0151 C.ar    1  UNL1        0.0178
      9 C          65.7450   92.2779   15.4380 C.ar    1  UNL1        0.0038
     10 C          66.9089   92.7731   16.2444 C.ar    1  UNL1        0.0297
     11 C          68.2747   92.8388   15.6278 C.ar    1  UNL1        0.1401
     12 F          69.4385   93.3341   16.4342 F       1  UNL1       -0.2042
     13 C          68.4767   92.4093   14.2049 C.ar    1  UNL1        0.0297
     14 C          67.3129   91.9140   13.3986 C.ar    1  UNL1        0.0038
     15 C          61.5033   88.8325    9.7246 C.3     1  UNL1        0.2487
     16 C          62.9174   83.5367   12.9975 C.ar    1  UNL1        0.3976
     17 C          63.1449   83.3760   11.5236 C.ar    1  UNL1        0.1779
     18 N          62.7842   84.6694   10.8551 N.ar    1  UNL1       -0.2749
     19 C          62.3337   85.6295   11.9158 C.ar    1  UNL1        0.3058
     20 N          62.4160   84.9295   13.2399 N.ar    1  UNL1       -0.1275
     21 O          61.9067   87.0172   11.5390 O.3     1  UNL1       -0.4475
     22 C          61.9303   87.4448   10.1015 C.3     1  UNL1        0.2143
     23 C          62.3808   86.4846    9.0407 C.3     1  UNL1        0.0722
     24 C          62.8078   85.0970    9.4175 C.3     1  UNL1        0.1146
     25 O          62.5538   81.1218   13.8841 O.2     1  UNL1        0.0432
     26 N          63.1503   82.4886   14.0451 N.pl3   1  UNL1        0.1030
     27 O          63.9797   82.8074   15.2535 O.co2   1  UNL1       -0.5746
@<TRIPOS>UNITY_ATOM_ATTR
26 1
charge 1
27 1
charge -1
@<TRIPOS>BOND
     1    25    26    2
     2    26    27    1
     3    26    16    1
     4    16    17   ar
     5    17    18   ar
     6    18    19   ar
     7    19    20   ar
     8    19    21    1
     9    21    22    1
    10    22    15    1
    11    15     1    1
    12     1     2    1
    13     2     3   ar
    14     3     4   ar
    15     4     5   ar
    16     5     8    1
    17     8     9   ar
    18     9    10   ar
    19    10    11   ar
    20    11    12    1
    21    11    13   ar
    22    13    14   ar
    23     5     6   ar
    24     6     7   ar
    25    22    23    1
    26    23    24    1
    27    20    16   ar
    28     7     2   ar
    29    24    18    1
    30    14     8   ar
@<TRIPOS>MOLECULE
*****
 27 30 0 0 0
SMALL
GASTEIGER

@<TRIPOS>ATOM
      1 O          61.8819   89.2657    9.7173 O.3     1  UNL1       -0.4700
      2 C          62.0750   87.9223   10.3560 C.ar    1  UNL1        0.1578
      3 C          61.7113   86.6757    9.6052 C.ar    1  UNL1        0.0401
      4 C          61.9044   85.3322   10.2440 C.ar    1  UNL1        0.0223
      5 C          62.4614   85.2355   11.6333 C.ar    1  UNL1        0.0815
      6 N          62.8252   86.4821   12.3841 N.ar    1  UNL1       -0.2407
      7 C          62.6320   87.8255   11.7454 C.ar    1  UNL1        0.1356
      8 C          62.6545   83.8921   12.2720 C.ar    1  UNL1        0.0178
      9 C          62.5604   83.7495   13.7622 C.ar    1  UNL1        0.0038
     10 C          62.7536   82.4061   14.4009 C.ar    1  UNL1        0.0297
     11 C          63.0409   81.2052   13.5493 C.ar    1  UNL1        0.1401
     12 F          63.2340   79.8618   14.1879 F       1  UNL1       -0.2042
     13 C          63.1350   81.3477   12.0590 C.ar    1  UNL1        0.0297
     14 C          62.9419   82.6911   11.4204 C.ar    1  UNL1        0.0038
     15 C          61.7912   90.4959   10.5708 C.3     1  UNL1        0.2487
     16 C          66.5807   92.6467   14.2029 C.ar    1  UNL1        0.3976
     17 C          66.7139   93.0715   12.7705 C.ar    1  UNL1        0.1779
     18 N          65.5451   92.5163   12.0117 N.ar    1  UNL1       -0.2749
     19 C          64.6896   91.7483   12.9752 C.ar    1  UNL1        0.3058
     20 N          65.3296   91.8289   14.3294 N.ar    1  UNL1       -0.1275
     21 O          63.4383   91.0749   12.4949 O.3     1  UNL1       -0.4475
     22 C          63.0426   91.1694   11.0512 C.3     1  UNL1        0.2143
     23 C          63.8981   91.9373   10.0877 C.3     1  UNL1        0.0722
     24 C          65.1494   92.6108   10.5680 C.3     1  UNL1        0.1146
     25 O          67.0241   93.1238   16.7180 O.2     1  UNL1        0.0432
     26 N          67.5316   92.9810   15.3137 N.pl3   1  UNL1        0.1030
     27 O          68.9901   93.1724   15.0203 O.co2   1  UNL1       -0.5746
@<TRIPOS>UNITY_ATOM_ATTR
26 1
charge 1
27 1
charge -1
@<TRIPOS>BOND
     1    25    26    2
     2    26    27    1
     3    26    16    1
     4    16    17   ar
     5    17    18   ar
     6    18    19   ar
     7    19    20   ar
     8    19    21    1
     9    21    22    1
    10    22    15    1
    11    15     1    1
    12     1     2    1
    13     2     3   ar
    14     3     4   ar
    15     4     5   ar
    16     5     8    1
    17     8     9   ar
    18     9    10   ar
    19    10    11   ar
    20    11    12    1
    21    11    13   ar
    22    13    14   ar
    23     5     6   ar
    24     6     7   ar
    25    22    23    1
    26    23    24    1
    27    20    16   ar
    28     7     2   ar
    29    24    18    1
    30    14     8   ar
@<TRIPOS>MOLECULE
*****
 27 30 0 0 0
SMALL
GASTEIGER

@<TRIPOS>ATOM
      1 O          63.6085   91.4263   16.1755 O.3     1  UNL1       -0.4700
      2 C          63.6309   89.9589   15.8656 C.ar    1  UNL1        0.1578
      3 C          64.2139   89.4746   14.5711 C.ar    1  UNL1        0.0401
      4 C          64.2363   88.0071   14.2612 C.ar    1  UNL1        0.0223
      5 C          63.6758   87.0240   15.2457 C.ar    1  UNL1        0.0815
      6 N          63.0928   87.5083   16.5401 N.ar    1  UNL1       -0.2407
      7 C          63.0704   88.9757   16.8501 C.ar    1  UNL1        0.1356
      8 C          63.6982   85.5565   14.9357 C.ar    1  UNL1        0.0178
      9 C          62.7073   84.6373   15.5862 C.ar    1  UNL1        0.0038
     10 C          62.7297   83.1698   15.2762 C.ar    1  UNL1        0.0297
     11 C          63.7431   82.6216   14.3157 C.ar    1  UNL1        0.1401
     12 F          63.7655   81.1542   14.0057 F       1  UNL1       -0.2042
     13 C          64.7340   83.5408   13.6652 C.ar    1  UNL1        0.0297
     14 C          64.7116   85.0083   13.9752 C.ar    1  UNL1        0.0038
     15 C          64.8923   92.1996   16.2369 C.3     1  UNL1        0.2487
     16 C          67.4687   92.8827   10.4359 C.ar    1  UNL1        0.3976
     17 C          68.4209   92.2627   11.4151 C.ar    1  UNL1        0.1779
     18 N          67.7189   92.1492   12.7359 N.ar    1  UNL1       -0.2749
     19 C          66.3329   92.6990   12.5729 C.ar    1  UNL1        0.3058
     20 N          66.1783   93.1523   11.1514 N.ar    1  UNL1       -0.1275
     21 O          65.3907   92.7158   13.7399 O.3     1  UNL1       -0.4475
     22 C          65.8345   92.1828   15.0699 C.3     1  UNL1        0.2143
     23 C          67.2206   91.6330   15.2328 C.3     1  UNL1        0.0722
     24 C          68.1628   91.6162   14.0658 C.3     1  UNL1        0.1146
     25 O          67.1698   94.4012    8.3491 O.2     1  UNL1        0.0432
     26 N          67.7564   93.1807    8.9942 N.pl3   1  UNL1        0.1030
     27 O          68.6308   92.2583    8.1977 O.co2   1  UNL1       -0.5746
@<TRIPOS>UNITY_ATOM_ATTR
26 1
charge 1
27 1
charge -1
@<TRIPOS>BOND
     1    25    26    2
     2    26    27    1
     3    26    16    1
     4    16    17   ar
     5    17    18   ar
     6    18    19   ar
     7    19    20   ar
     8    19    21    1
     9    21    22    1
    10    22    15    1
    11    15     1    1
    12     1     2    1
    13     2     3   ar
    14     3     4   ar
    15     4     5   ar
    16     5     8    1
    17     8     9   ar
    18     9    10   ar
    19    10    11   ar
    20    11    12    1
    21    11    13   ar
    22    13    14   ar
    23     5     6   ar
    24     6     7   ar
    25    22    23    1
    26    23    24    1
    27    20    16   ar
    28     7     2   ar
    29    24    18    1
    30    14     8   ar
@<TRIPOS>MOLECULE
*****
 27 30 0 0 0
SMALL
GASTEIGER

@<TRIPOS>ATOM
      1 O          65.2953   91.2510   15.6276 O.3     1  UNL1       -0.4700
      2 C          64.5482   90.5761   14.5157 C.ar    1  UNL1        0.1578
      3 C          64.4909   89.0785   14.4514 C.ar    1  UNL1        0.0401
      4 C          63.7438   88.4036   13.3395 C.ar    1  UNL1        0.0223
      5 C          63.0540   89.2263   12.2919 C.ar    1  UNL1        0.0815
      6 N          63.1113   90.7238   12.3562 N.ar    1  UNL1       -0.2407
      7 C          63.8584   91.3987   13.4680 C.ar    1  UNL1        0.1356
      8 C          62.3069   88.5513   11.1800 C.ar    1  UNL1        0.0178
      9 C          61.5355   89.3714   10.1888 C.ar    1  UNL1        0.0038
     10 C          60.7884   88.6964    9.0768 C.ar    1  UNL1        0.0297
     11 C          60.8127   87.2014    8.9562 C.ar    1  UNL1        0.1401
     12 F          60.0656   86.5265    7.8443 F       1  UNL1       -0.2042
     13 C          61.5841   86.3814    9.9474 C.ar    1  UNL1        0.0297
     14 C          62.3312   87.0564   11.0593 C.ar    1  UNL1        0.0038
     15 C          66.2608   92.3568   15.3194 C.3     1  UNL1        0.2487
     16 C          66.4347   95.3500    9.6832 C.ar    1  UNL1        0.3976
     17 C          67.2336   94.0805    9.6814 C.ar    1  UNL1        0.1779
     18 N          67.1251   93.4626   11.0439 N.ar    1  UNL1       -0.2749
     19 C          66.2591   94.3502   11.8878 C.ar    1  UNL1        0.3058
     20 N          65.8324   95.5167   11.0468 N.ar    1  UNL1       -0.1275
     21 O          65.9710   93.9817   13.3130 O.3     1  UNL1       -0.4475
     22 C          66.5489   92.7254   13.8942 C.3     1  UNL1        0.2143
     23 C          67.4149   91.8378   13.0503 C.3     1  UNL1        0.0722
     24 C          67.7030   92.2064   11.6251 C.3     1  UNL1        0.1146
     25 O          67.4521   96.6590    7.6828 O.2     1  UNL1        0.0432
     26 N          66.2674   96.2882    8.5248 N.pl3   1  UNL1        0.1030
     27 O          64.9154   96.8554    8.2083 O.co2   1  UNL1       -0.5746
@<TRIPOS>UNITY_ATOM_ATTR
26 1
charge 1
27 1
charge -1
@<TRIPOS>BOND
     1    25    26    2
     2    26    27    1
     3    26    16    1
     4    16    17   ar
     5    17    18   ar
     6    18    19   ar
     7    19    20   ar
     8    19    21    1
     9    21    22    1
    10    22    15    1
    11    15     1    1
    12     1     2    1
    13     2     3   ar
    14     3     4   ar
    15     4     5   ar
    16     5     8    1
    17     8     9   ar
    18     9    10   ar
    19    10    11   ar
    20    11    12    1
    21    11    13   ar
    22    13    14   ar
    23     5     6   ar
    24     6     7   ar
    25    22    23    1
    26    23    24    1
    27    20    16   ar
    28     7     2   ar
    29    24    18    1
    30    14     8   ar
@<TRIPOS>MOLECULE
*****
 27 30 0 0 0
SMALL
GASTEIGER

@<TRIPOS>ATOM
      1 O          71.7859   76.1287   15.3222 O.3     1  UNL1       -0.4700
      2 C          71.9284   77.0371   14.1371 C.ar    1  UNL1        0.1578
      3 C          71.3264   76.6502   12.8188 C.ar    1  UNL1        0.0401
      4 C          71.4689   77.5586   11.6337 C.ar    1  UNL1        0.0223
      5 C          72.2135   78.8539   11.7669 C.ar    1  UNL1        0.0815
      6 N          72.8156   79.2408   13.0851 N.ar    1  UNL1       -0.2407
      7 C          72.6731   78.3325   14.2702 C.ar    1  UNL1        0.1356
      8 C          72.3560   79.7623   10.5818 C.ar    1  UNL1        0.0178
      9 C          72.2447   81.2477   10.7577 C.ar    1  UNL1        0.0038
     10 C          72.3872   82.1561    9.5725 C.ar    1  UNL1        0.0297
     11 C          72.6411   81.5790    8.2114 C.ar    1  UNL1        0.1401
     12 F          72.7836   82.4874    7.0263 F       1  UNL1       -0.2042
     13 C          72.7524   80.0935    8.0355 C.ar    1  UNL1        0.0297
     14 C          72.6099   79.1852    9.2206 C.ar    1  UNL1        0.0038
     15 C          72.6721   74.9259   15.4561 C.3     1  UNL1        0.2487
     16 C          69.4621   70.2157   12.5809 C.ar    1  UNL1        0.3976
     17 C          70.5011   69.7017   13.5329 C.ar    1  UNL1        0.1779
     18 N          71.1906   70.8829   14.1487 N.ar    1  UNL1       -0.2749
     19 C          70.5777   72.1271   13.5773 C.ar    1  UNL1        0.3058
     20 N          69.5095   71.7147   12.6083 N.ar    1  UNL1       -0.1275
     21 O          71.0715   73.4747   14.0131 O.3     1  UNL1       -0.4475
     22 C          72.1782   73.5782   15.0203 C.3     1  UNL1        0.2143
     23 C          72.7910   72.3341   15.5917 C.3     1  UNL1        0.0722
     24 C          72.2972   70.9864   15.1559 C.3     1  UNL1        0.1146
     25 O          67.0907   69.7525   11.6260 O.2     1  UNL1        0.0432
     26 N          68.5381   69.3779   11.7477 N.pl3   1  UNL1        0.1030
     27 O          69.0613   68.1654   11.0363 O.co2   1  UNL1       -0.5746
@<TRIPOS>UNITY_ATOM_ATTR
26 1
charge 1
27 1
charge -1
@<TRIPOS>BOND
     1    25    26    2
     2    26    27    1
     3    26    16    1
     4    16    17   ar
     5    17    18   ar
     6    18    19   ar
     7    19    20   ar
     8    19    21    1
     9    21    22    1
    10    22    15    1
    11    15     1    1
    12     1     2    1
    13     2     3   ar
    14     3     4   ar
    15     4     5   ar
    16     5     8    1
    17     8     9   ar
    18     9    10   ar
    19    10    11   ar
    20    11    12    1
    21    11    13   ar
    22    13    14   ar
    23     5     6   ar
    24     6     7   ar
    25    22    23    1
    26    23    24    1
    27    20    16   ar
    28     7     2   ar
    29    24    18    1
    30    14     8   ar
