@<TRIPOS>MOLECULE
*****
 26 29 0 0 0
SMALL
GASTEIGER

@<TRIPOS>ATOM
      1 C          63.8913   85.3622   13.5597 C.2     1  UNL1        0.1203
      2 C          64.1830   84.0713   12.8535 C.2     1  UNL1        0.0299
      3 C          63.6535   83.8373   11.4697 C.2     1  UNL1       -0.0018
      4 C          63.9451   82.5465   10.7634 C.3     1  UNL1        0.0327
      5 C          62.8322   84.8941   10.7922 C.ar    1  UNL1        0.0753
      6 N          62.3027   84.6600    9.4084 N.ar    1  UNL1       -0.2257
      7 C          61.4815   85.7167    8.7309 C.ar    1  UNL1        0.1845
      8 N          60.8300   85.7696    7.3809 N.2     1  UNL1       -0.1288
      9 N          60.1356   87.0930    7.2528 N.2     1  UNL1       -0.1508
     10 C          60.3580   87.8581    8.5237 C.2     1  UNL1        0.0836
     11 C          59.8397   89.2325    8.8276 C.3     1  UNL1        0.0541
     12 C          61.1898   87.0075    9.4373 C.ar    1  UNL1        0.0499
     13 C          61.7194   87.2415   10.8210 C.ar    1  UNL1       -0.0022
     14 C          62.5406   86.1848   11.4985 C.ar    1  UNL1        0.0003
     15 C          63.0701   86.4189   12.8823 C.3     1  UNL1        0.0914
     16 C          63.4871   85.5754   16.1174 C.3     1  UNL1        0.2520
     17 O          64.4208   85.5962   14.9435 O.2     1  UNL1       -0.4754
     18 C          61.4277   88.5323   11.5273 C.3     1  UNL1        0.1356
     19 C          62.4628   89.6173   11.5647 C.ar    1  UNL1       -0.0043
     20 C          63.1947   89.9119   12.8405 C.ar    1  UNL1       -0.0029
     21 C          64.2298   90.9970   12.8778 C.ar    1  UNL1       -0.0003
     22 C          64.5329   91.7873   11.6395 C.ar    1  UNL1       -0.0000
     23 C          63.8010   91.4926   10.3637 C.ar    1  UNL1       -0.0003
     24 C          62.7659   90.4076   10.3263 C.ar    1  UNL1       -0.0029
     25 C          60.1009   88.7381   12.1963 C.1     1  UNL1        0.0810
     26 N          58.7743   88.9438   12.8652 N.1     1  UNL1       -0.1952
@<TRIPOS>BOND
     1    16    17    1
     2    17     1    1
     3     1     2    2
     4     2     3    1
     5     3     4    1
     6     3     5    2
     7     5     6   ar
     8     6     7   ar
     9     7     8    1
    10     8     9    2
    11     9    10    1
    12    10    11    1
    13    10    12    2
    14    12    13   ar
    15    13    18    1
    16    18    25    1
    17    25    26    3
    18    18    19    1
    19    19    20   ar
    20    20    21   ar
    21    21    22   ar
    22    22    23   ar
    23    23    24   ar
    24    13    14   ar
    25    14    15    1
    26    15     1    1
    27    14     5   ar
    28    12     7   ar
    29    24    19   ar
@<TRIPOS>MOLECULE
*****
 26 29 0 0 0
SMALL
GASTEIGER

@<TRIPOS>ATOM
      1 C          60.8684   89.4766   12.2145 C.2     1  UNL1        0.1203
      2 C          61.0092   89.8669   10.7730 C.2     1  UNL1        0.0299
      3 C          62.2288   90.6089   10.3127 C.2     1  UNL1       -0.0018
      4 C          62.3697   90.9993    8.8712 C.3     1  UNL1        0.0327
      5 C          63.3077   90.9606   11.2939 C.ar    1  UNL1        0.0753
      6 N          64.5274   91.7026   10.8335 N.ar    1  UNL1       -0.2257
      7 C          65.6061   92.0542   11.8146 C.ar    1  UNL1        0.1845
      8 N          66.9117   92.7753   11.6551 N.2     1  UNL1       -0.1288
      9 N          67.5777   92.8306   12.9980 N.2     1  UNL1       -0.1508
     10 C          66.6838   92.1436   13.9874 C.2     1  UNL1        0.0836
     11 C          66.9599   91.9675   15.4512 C.3     1  UNL1        0.0541
     12 C          65.4652   91.6638   13.2560 C.ar    1  UNL1        0.0499
     13 C          64.2456   90.9218   13.7164 C.ar    1  UNL1       -0.0022
     14 C          63.1668   90.5702   12.7352 C.ar    1  UNL1        0.0003
     15 C          61.9471   89.8282   13.1956 C.3     1  UNL1        0.0914
     16 C          58.2938   89.3653   12.5457 C.3     1  UNL1        0.2520
     17 O          59.6487   88.7346   12.6748 O.2     1  UNL1       -0.4754
     18 C          64.1047   90.5314   15.1578 C.3     1  UNL1        0.1356
     19 C          63.9212   89.0899   15.5299 C.ar    1  UNL1       -0.0043
     20 C          63.1451   88.7260   16.7608 C.ar    1  UNL1       -0.0029
     21 C          62.9617   87.2845   17.1329 C.ar    1  UNL1       -0.0003
     22 C          63.5543   86.2070   16.2742 C.ar    1  UNL1       -0.0000
     23 C          64.3305   86.5709   15.0432 C.ar    1  UNL1       -0.0003
     24 C          64.5140   88.0123   14.6711 C.ar    1  UNL1       -0.0029
     25 C          64.1473   91.5825   16.2272 C.1     1  UNL1        0.0810
     26 N          64.1898   92.6335   17.2965 N.1     1  UNL1       -0.1952
@<TRIPOS>BOND
     1    16    17    1
     2    17     1    1
     3     1     2    2
     4     2     3    1
     5     3     4    1
     6     3     5    2
     7     5     6   ar
     8     6     7   ar
     9     7     8    1
    10     8     9    2
    11     9    10    1
    12    10    11    1
    13    10    12    2
    14    12    13   ar
    15    13    18    1
    16    18    25    1
    17    25    26    3
    18    18    19    1
    19    19    20   ar
    20    20    21   ar
    21    21    22   ar
    22    22    23   ar
    23    23    24   ar
    24    13    14   ar
    25    14    15    1
    26    15     1    1
    27    14     5   ar
    28    12     7   ar
    29    24    19   ar
@<TRIPOS>MOLECULE
*****
 26 29 0 0 0
SMALL
GASTEIGER

@<TRIPOS>ATOM
      1 C          62.6984   83.3898   12.5357 C.2     1  UNL1        0.1203
      2 C          63.7168   83.4164   13.6367 C.2     1  UNL1        0.0299
      3 C          64.2812   84.7251   14.1047 C.2     1  UNL1       -0.0018
      4 C          65.2996   84.7518   15.2057 C.3     1  UNL1        0.0327
      5 C          63.8272   86.0070   13.4716 C.ar    1  UNL1        0.0753
      6 N          64.3917   87.3156   13.9396 N.ar    1  UNL1       -0.2257
      7 C          63.9377   88.5975   13.3066 C.ar    1  UNL1        0.1845
      8 N          64.3131   90.0281   13.5562 N.2     1  UNL1       -0.1288
      9 N          63.5267   90.8855   12.6094 N.2     1  UNL1       -0.1508
     10 C          62.6653   89.9848   11.7747 C.2     1  UNL1        0.0836
     11 C          61.7165   90.4216   10.6981 C.3     1  UNL1        0.0541
     12 C          62.9193   88.5707   12.2055 C.ar    1  UNL1        0.0499
     13 C          62.3549   87.2621   11.7376 C.ar    1  UNL1       -0.0022
     14 C          62.8089   85.9802   12.3707 C.ar    1  UNL1        0.0003
     15 C          62.2444   84.6716   11.9026 C.3     1  UNL1        0.0914
     16 C          62.7118   80.7919   12.5720 C.3     1  UNL1        0.2520
     17 O          62.1340   82.0812   12.0678 O.2     1  UNL1       -0.4754
     18 C          61.3366   87.2353   10.6366 C.3     1  UNL1        0.1356
     19 C          61.6061   86.4547    9.3844 C.ar    1  UNL1       -0.0043
     20 C          60.4930   86.1811    8.4169 C.ar    1  UNL1       -0.0029
     21 C          60.7626   85.4004    7.1647 C.ar    1  UNL1       -0.0003
     22 C          62.1453   84.8934    6.8801 C.ar    1  UNL1       -0.0000
     23 C          63.2585   85.1670    7.8477 C.ar    1  UNL1       -0.0003
     24 C          62.9889   85.9477    9.0998 C.ar    1  UNL1       -0.0029
     25 C          60.0485   87.9892   10.7878 C.1     1  UNL1        0.0810
     26 N          58.7606   88.7430   10.9389 N.1     1  UNL1       -0.1952
@<TRIPOS>BOND
     1    16    17    1
     2    17     1    1
     3     1     2    2
     4     2     3    1
     5     3     4    1
     6     3     5    2
     7     5     6   ar
     8     6     7   ar
     9     7     8    1
    10     8     9    2
    11     9    10    1
    12    10    11    1
    13    10    12    2
    14    12    13   ar
    15    13    18    1
    16    18    25    1
    17    25    26    3
    18    18    19    1
    19    19    20   ar
    20    20    21   ar
    21    21    22   ar
    22    22    23   ar
    23    23    24   ar
    24    13    14   ar
    25    14    15    1
    26    15     1    1
    27    14     5   ar
    28    12     7   ar
    29    24    19   ar
@<TRIPOS>MOLECULE
*****
 26 29 0 0 0
SMALL
GASTEIGER

@<TRIPOS>ATOM
      1 C          67.7753   92.3379   13.6380 C.2     1  UNL1        0.1203
      2 C          68.0048   92.7484   12.2136 C.2     1  UNL1        0.0299
      3 C          66.9340   92.5255   11.1872 C.2     1  UNL1       -0.0018
      4 C          67.1634   92.9360    9.7627 C.3     1  UNL1        0.0327
      5 C          65.6337   91.8922   11.5851 C.ar    1  UNL1        0.0753
      6 N          64.5629   91.6693   10.5585 N.ar    1  UNL1       -0.2257
      7 C          63.2627   91.0360   10.9564 C.ar    1  UNL1        0.1845
      8 N          62.0317   90.6927   10.1710 N.2     1  UNL1       -0.1288
      9 N          61.0415   90.0701   11.1101 N.2     1  UNL1       -0.1508
     10 C          61.6605   90.0286   12.4758 C.2     1  UNL1        0.0836
     11 C          61.0192   89.4855   13.7183 C.3     1  UNL1        0.0541
     12 C          63.0333   90.6256   12.3808 C.ar    1  UNL1        0.0499
     13 C          64.1041   90.8484   13.4073 C.ar    1  UNL1       -0.0022
     14 C          65.4043   91.4817   13.0094 C.ar    1  UNL1        0.0003
     15 C          66.4751   91.7046   14.0360 C.3     1  UNL1        0.0914
     16 C          68.4864   92.6392   16.1187 C.3     1  UNL1        0.2520
     17 O          68.8461   92.5607   14.6645 O.2     1  UNL1       -0.4754
     18 C          63.8747   90.4380   14.8317 C.3     1  UNL1        0.1356
     19 C          63.8352   88.9834   15.1960 C.ar    1  UNL1       -0.0043
     20 C          63.2195   88.5518   16.4939 C.ar    1  UNL1       -0.0029
     21 C          63.1800   87.0972   16.8582 C.ar    1  UNL1       -0.0003
     22 C          63.7562   86.0743   15.9246 C.ar    1  UNL1       -0.0000
     23 C          64.3719   86.5060   14.6266 C.ar    1  UNL1       -0.0003
     24 C          64.4114   87.9605   14.2623 C.ar    1  UNL1       -0.0029
     25 C          63.6848   91.4821   15.8918 C.1     1  UNL1        0.0810
     26 N          63.4950   92.5262   16.9519 N.1     1  UNL1       -0.1952
@<TRIPOS>BOND
     1    16    17    1
     2    17     1    1
     3     1     2    2
     4     2     3    1
     5     3     4    1
     6     3     5    2
     7     5     6   ar
     8     6     7   ar
     9     7     8    1
    10     8     9    2
    11     9    10    1
    12    10    11    1
    13    10    12    2
    14    12    13   ar
    15    13    18    1
    16    18    25    1
    17    25    26    3
    18    18    19    1
    19    19    20   ar
    20    20    21   ar
    21    21    22   ar
    22    22    23   ar
    23    23    24   ar
    24    13    14   ar
    25    14    15    1
    26    15     1    1
    27    14     5   ar
    28    12     7   ar
    29    24    19   ar
@<TRIPOS>MOLECULE
*****
 26 29 0 0 0
SMALL
GASTEIGER

@<TRIPOS>ATOM
      1 C          63.0473   89.1196   11.8785 C.2     1  UNL1        0.1203
      2 C          62.2440   88.8124   10.6495 C.2     1  UNL1        0.0299
      3 C          61.9014   87.3913   10.3133 C.2     1  UNL1       -0.0018
      4 C          61.0981   87.0841    9.0843 C.3     1  UNL1        0.0327
      5 C          62.3623   86.2773   11.2060 C.ar    1  UNL1        0.0753
      6 N          62.0197   84.8562   10.8696 N.ar    1  UNL1       -0.2257
      7 C          62.4805   83.7423   11.7623 C.ar    1  UNL1        0.1845
      8 N          62.2972   82.2554   11.6880 N.2     1  UNL1       -0.1288
      9 N          62.9872   81.6436   12.8710 N.2     1  UNL1       -0.1508
     10 C          63.5970   82.7524   13.6765 C.2     1  UNL1        0.0836
     11 C          64.3820   82.5923   14.9446 C.3     1  UNL1        0.0541
     12 C          63.2838   84.0495   12.9912 C.ar    1  UNL1        0.0499
     13 C          63.6263   85.4706   13.3275 C.ar    1  UNL1       -0.0022
     14 C          63.1655   86.5845   12.4349 C.ar    1  UNL1        0.0003
     15 C          63.5081   88.0057   12.7712 C.3     1  UNL1        0.0914
     16 C          64.2122   90.8462   13.4316 C.3     1  UNL1        0.2520
     17 O          63.3898   90.5407   12.2148 O.2     1  UNL1       -0.4754
     18 C          64.4296   85.7778   14.5565 C.3     1  UNL1        0.1356
     19 C          63.7875   86.4800   15.7161 C.ar    1  UNL1       -0.0043
     20 C          63.7794   87.9788   15.7741 C.ar    1  UNL1       -0.0029
     21 C          63.1372   88.6810   16.9337 C.ar    1  UNL1       -0.0003
     22 C          62.5033   87.8844   18.0352 C.ar    1  UNL1       -0.0000
     23 C          62.5115   86.3854   17.9772 C.ar    1  UNL1       -0.0003
     24 C          63.1536   85.6832   16.8176 C.ar    1  UNL1       -0.0029
     25 C          65.8751   85.3828   14.6259 C.1     1  UNL1        0.0810
     26 N          67.3204   84.9878   14.6952 N.1     1  UNL1       -0.1952
@<TRIPOS>BOND
     1    16    17    1
     2    17     1    1
     3     1     2    2
     4     2     3    1
     5     3     4    1
     6     3     5    2
     7     5     6   ar
     8     6     7   ar
     9     7     8    1
    10     8     9    2
    11     9    10    1
    12    10    11    1
    13    10    12    2
    14    12    13   ar
    15    13    18    1
    16    18    25    1
    17    25    26    3
    18    18    19    1
    19    19    20   ar
    20    20    21   ar
    21    21    22   ar
    22    22    23   ar
    23    23    24   ar
    24    13    14   ar
    25    14    15    1
    26    15     1    1
    27    14     5   ar
    28    12     7   ar
    29    24    19   ar
@<TRIPOS>MOLECULE
*****
 26 29 0 0 0
SMALL
GASTEIGER

@<TRIPOS>ATOM
      1 C          60.9678   86.2314    8.7021 C.2     1  UNL1        0.1203
      2 C          60.7796   87.6989    8.9496 C.2     1  UNL1        0.0299
      3 C          61.3783   88.3367   10.1681 C.2     1  UNL1       -0.0018
      4 C          61.1902   89.8041   10.4157 C.3     1  UNL1        0.0327
      5 C          62.1651   87.5070   11.1391 C.ar    1  UNL1        0.0753
      6 N          62.7638   88.1449   12.3577 N.ar    1  UNL1       -0.2257
      7 C          63.5505   87.3153   13.3286 C.ar    1  UNL1        0.1845
      8 N          64.2531   87.6635   14.6073 N.2     1  UNL1       -0.1288
      9 N          64.8755   86.4112   15.1500 N.2     1  UNL1       -0.1508
     10 C          64.5575   85.2891   14.2067 C.2     1  UNL1        0.0836
     11 C          64.9836   83.8593   14.3619 C.3     1  UNL1        0.0541
     12 C          63.7386   85.8479   13.0810 C.ar    1  UNL1        0.0499
     13 C          63.1400   85.2101   11.8625 C.ar    1  UNL1       -0.0022
     14 C          62.3532   86.0397   10.8915 C.ar    1  UNL1        0.0003
     15 C          61.7546   85.4018    9.6730 C.3     1  UNL1        0.0914
     16 C          61.2313   84.7851    6.5598 C.3     1  UNL1        0.2520
     17 O          60.3691   85.5936    7.4835 O.2     1  UNL1       -0.4754
     18 C          63.3281   83.7427   11.6149 C.3     1  UNL1        0.1356
     19 C          62.6898   82.7398   12.5296 C.ar    1  UNL1       -0.0043
     20 C          62.7989   81.2743   12.2289 C.ar    1  UNL1       -0.0029
     21 C          62.1605   80.2715   13.1438 C.ar    1  UNL1       -0.0003
     22 C          61.4132   80.7341   14.3592 C.ar    1  UNL1       -0.0000
     23 C          61.3041   82.1997   14.6599 C.ar    1  UNL1       -0.0003
     24 C          61.9424   83.2026   13.7451 C.ar    1  UNL1       -0.0029
     25 C          64.1546   83.2781   10.4524 C.1     1  UNL1        0.0810
     26 N          64.9809   82.8135    9.2899 N.1     1  UNL1       -0.1952
@<TRIPOS>BOND
     1    16    17    1
     2    17     1    1
     3     1     2    2
     4     2     3    1
     5     3     4    1
     6     3     5    2
     7     5     6   ar
     8     6     7   ar
     9     7     8    1
    10     8     9    2
    11     9    10    1
    12    10    11    1
    13    10    12    2
    14    12    13   ar
    15    13    18    1
    16    18    25    1
    17    25    26    3
    18    18    19    1
    19    19    20   ar
    20    20    21   ar
    21    21    22   ar
    22    22    23   ar
    23    23    24   ar
    24    13    14   ar
    25    14    15    1
    26    15     1    1
    27    14     5   ar
    28    12     7   ar
    29    24    19   ar
@<TRIPOS>MOLECULE
*****
 26 29 0 0 0
SMALL
GASTEIGER

@<TRIPOS>ATOM
      1 C          59.6435   88.1782    7.6002 C.2     1  UNL1        0.1203
      2 C          59.8510   86.8986    6.8454 C.2     1  UNL1        0.0299
      3 C          60.6799   85.8010    7.4438 C.2     1  UNL1       -0.0018
      4 C          60.8876   84.5214    6.6890 C.3     1  UNL1        0.0327
      5 C          61.3012   85.9828    8.7970 C.ar    1  UNL1        0.0753
      6 N          62.1302   84.8851    9.3953 N.ar    1  UNL1       -0.2257
      7 C          62.7514   85.0670   10.7484 C.ar    1  UNL1        0.1845
      8 N          63.6118   84.1687   11.5867 N.2     1  UNL1       -0.1288
      9 N          63.9360   84.8931   12.8596 N.2     1  UNL1       -0.1508
     10 C          63.2759   86.2391   12.8079 C.2     1  UNL1        0.0836
     11 C          63.3372   87.2926   13.8739 C.3     1  UNL1        0.0541
     12 C          62.5438   86.3466   11.5032 C.ar    1  UNL1        0.0499
     13 C          61.7149   87.4442   10.9048 C.ar    1  UNL1       -0.0022
     14 C          61.0936   87.2623    9.5517 C.ar    1  UNL1        0.0003
     15 C          60.2647   88.3601    8.9533 C.3     1  UNL1        0.0914
     16 C          59.3818   90.1340    5.9100 C.3     1  UNL1        0.2520
     17 O          58.8146   89.2758    7.0018 O.2     1  UNL1       -0.4754
     18 C          61.5072   88.7238   11.6595 C.3     1  UNL1        0.1356
     19 C          62.5492   89.8017   11.6094 C.ar    1  UNL1       -0.0043
     20 C          63.3248   90.1530   12.8442 C.ar    1  UNL1       -0.0029
     21 C          64.3668   91.2310   12.7940 C.ar    1  UNL1       -0.0003
     22 C          64.6330   91.9574   11.5090 C.ar    1  UNL1       -0.0000
     23 C          63.8573   91.6060   10.2741 C.ar    1  UNL1       -0.0003
     24 C          62.8154   90.5281   10.3243 C.ar    1  UNL1       -0.0029
     25 C          60.2576   88.9255   12.4645 C.1     1  UNL1        0.0810
     26 N          59.0080   89.1271   13.2693 N.1     1  UNL1       -0.1952
@<TRIPOS>BOND
     1    16    17    1
     2    17     1    1
     3     1     2    2
     4     2     3    1
     5     3     4    1
     6     3     5    2
     7     5     6   ar
     8     6     7   ar
     9     7     8    1
    10     8     9    2
    11     9    10    1
    12    10    11    1
    13    10    12    2
    14    12    13   ar
    15    13    18    1
    16    18    25    1
    17    25    26    3
    18    18    19    1
    19    19    20   ar
    20    20    21   ar
    21    21    22   ar
    22    22    23   ar
    23    23    24   ar
    24    13    14   ar
    25    14    15    1
    26    15     1    1
    27    14     5   ar
    28    12     7   ar
    29    24    19   ar
@<TRIPOS>MOLECULE
*****
 26 29 0 0 0
SMALL
GASTEIGER

@<TRIPOS>ATOM
      1 C          63.9268   87.7835   14.0417 C.2     1  UNL1        0.1203
      2 C          63.7938   87.5917   15.5235 C.2     1  UNL1        0.0299
      3 C          63.4023   86.2526   16.0742 C.2     1  UNL1       -0.0018
      4 C          63.2692   86.0607   17.5560 C.3     1  UNL1        0.0327
      5 C          63.1437   85.1052   15.1432 C.ar    1  UNL1        0.0753
      6 N          62.7521   83.7660   15.6940 N.ar    1  UNL1       -0.2257
      7 C          62.4935   82.6186   14.7630 C.ar    1  UNL1        0.1845
      8 N          62.0954   81.1941   15.0121 N.2     1  UNL1       -0.1288
      9 N          61.9824   80.5055   13.6843 N.2     1  UNL1       -0.1508
     10 C          62.3106   81.5044   12.6146 C.2     1  UNL1        0.0836
     11 C          62.3211   81.2432   11.1375 C.3     1  UNL1        0.0541
     12 C          62.6265   82.8105   13.2813 C.ar    1  UNL1        0.0499
     13 C          63.0181   84.1497   12.7305 C.ar    1  UNL1       -0.0022
     14 C          63.2767   85.2970   13.6615 C.ar    1  UNL1        0.0003
     15 C          63.6682   86.6362   13.1107 C.3     1  UNL1        0.0914
     16 C          63.6320   90.3641   13.9789 C.3     1  UNL1        0.2520
     17 O          64.3184   89.1226   13.4910 O.2     1  UNL1       -0.4754
     18 C          63.1511   84.3415   11.2488 C.3     1  UNL1        0.1356
     19 C          62.3296   85.3846   10.5509 C.ar    1  UNL1       -0.0043
     20 C          61.3146   86.1779   11.3193 C.ar    1  UNL1       -0.0029
     21 C          60.4931   87.2210   10.6212 C.ar    1  UNL1       -0.0003
     22 C          60.6866   87.4707    9.1550 C.ar    1  UNL1       -0.0000
     23 C          61.7017   86.6773    8.3865 C.ar    1  UNL1       -0.0003
     24 C          62.5232   85.6343    9.0845 C.ar    1  UNL1       -0.0029
     25 C          64.1057   83.4902   10.4650 C.1     1  UNL1        0.0810
     26 N          65.0601   82.6389    9.6813 N.1     1  UNL1       -0.1952
@<TRIPOS>BOND
     1    16    17    1
     2    17     1    1
     3     1     2    2
     4     2     3    1
     5     3     4    1
     6     3     5    2
     7     5     6   ar
     8     6     7   ar
     9     7     8    1
    10     8     9    2
    11     9    10    1
    12    10    11    1
    13    10    12    2
    14    12    13   ar
    15    13    18    1
    16    18    25    1
    17    25    26    3
    18    18    19    1
    19    19    20   ar
    20    20    21   ar
    21    21    22   ar
    22    22    23   ar
    23    23    24   ar
    24    13    14   ar
    25    14    15    1
    26    15     1    1
    27    14     5   ar
    28    12     7   ar
    29    24    19   ar
@<TRIPOS>MOLECULE
*****
 26 29 0 0 0
SMALL
GASTEIGER

@<TRIPOS>ATOM
      1 C          63.3212   89.8726   11.7068 C.2     1  UNL1        0.1203
      2 C          63.6596   90.3555   13.0861 C.2     1  UNL1        0.0299
      3 C          63.7906   89.3742   14.2130 C.2     1  UNL1       -0.0018
      4 C          64.1290   89.8570   15.5923 C.3     1  UNL1        0.0327
      5 C          63.5832   87.9101   13.9606 C.ar    1  UNL1        0.0753
      6 N          63.7142   86.9289   15.0876 N.ar    1  UNL1       -0.2257
      7 C          63.5068   85.4649   14.8353 C.ar    1  UNL1        0.1845
      8 N          63.5695   84.2715   15.7417 N.2     1  UNL1       -0.1288
      9 N          63.2698   83.0511   14.9227 N.2     1  UNL1       -0.1508
     10 C          63.0220   83.4903   13.5100 C.2     1  UNL1        0.0836
     11 C          62.6865   82.5949   12.3543 C.3     1  UNL1        0.0541
     12 C          63.1685   84.9822   13.4560 C.ar    1  UNL1        0.0499
     13 C          63.0375   85.9634   12.3290 C.ar    1  UNL1       -0.0022
     14 C          63.2448   87.4274   12.5814 C.ar    1  UNL1        0.0003
     15 C          63.1138   88.4086   11.4544 C.3     1  UNL1        0.0914
     16 C          64.1838   91.9686   10.4366 C.3     1  UNL1        0.2520
     17 O          63.1902   90.8539   10.5798 O.2     1  UNL1       -0.4754
     18 C          62.6991   85.4807   10.9497 C.3     1  UNL1        0.1356
     19 C          61.5815   86.1237   10.1832 C.ar    1  UNL1       -0.0043
     20 C          60.6301   87.0504   10.8802 C.ar    1  UNL1       -0.0029
     21 C          59.5125   87.6935   10.1136 C.ar    1  UNL1       -0.0003
     22 C          59.3464   87.4098    8.6501 C.ar    1  UNL1       -0.0000
     23 C          60.2980   86.4830    7.9531 C.ar    1  UNL1       -0.0003
     24 C          61.4155   85.8399    8.7196 C.ar    1  UNL1       -0.0029
     25 C          63.4783   84.3548   10.3369 C.1     1  UNL1        0.0810
     26 N          64.2575   83.2291    9.7241 N.1     1  UNL1       -0.1952
@<TRIPOS>BOND
     1    16    17    1
     2    17     1    1
     3     1     2    2
     4     2     3    1
     5     3     4    1
     6     3     5    2
     7     5     6   ar
     8     6     7   ar
     9     7     8    1
    10     8     9    2
    11     9    10    1
    12    10    11    1
    13    10    12    2
    14    12    13   ar
    15    13    18    1
    16    18    25    1
    17    25    26    3
    18    18    19    1
    19    19    20   ar
    20    20    21   ar
    21    21    22   ar
    22    22    23   ar
    23    23    24   ar
    24    13    14   ar
    25    14    15    1
    26    15     1    1
    27    14     5   ar
    28    12     7   ar
    29    24    19   ar
