@<TRIPOS>MOLECULE
*****
 20 21 0 0 0
SMALL
GASTEIGER

@<TRIPOS>ATOM
      1 C          61.9412   86.1724   10.6350 C.ar    1  UNL1        0.1416
      2 C          61.9596   86.4600    9.1630 C.ar    1  UNL1        0.0371
      3 C          62.7040   85.5509    8.2305 C.ar    1  UNL1        0.0062
      4 C          63.4298   84.3543    8.7700 C.ar    1  UNL1        0.0371
      5 C          63.4114   84.0667   10.2420 C.ar    1  UNL1        0.1416
      6 C          62.6671   84.9757   11.1745 C.ar    1  UNL1        0.0680
      7 C          60.1711   88.0332   11.0274 C.3     1  UNL1        0.2525
      8 O          61.1969   87.0814   11.5676 O.3     1  UNL1       -0.4713
      9 O          64.1373   82.8700   10.7816 O.3     1  UNL1       -0.4713
     10 C          63.4075   81.5736   10.9733 C.3     1  UNL1        0.2525
     11 C          62.6487   84.6881   12.6466 C.2     1  UNL1        0.0094
     12 C          63.7289   85.2360   13.5314 C.2     1  UNL1        0.0437
     13 C          63.7105   84.9484   15.0034 C.2     1  UNL1        0.2111
     14 O          64.0123   83.5660   15.5014 O.2     1  UNL1       -0.2850
     15 C          63.3904   86.0432   15.9776 C.ar    1  UNL1        0.0961
     16 C          62.8456   85.8592   17.3630 C.ar    1  UNL1        0.0218
     17 C          62.6774   87.2165   17.9790 C.ar    1  UNL1        0.0200
     18 C          63.1183   88.2393   16.9744 C.ar    1  UNL1        0.0725
     19 N          63.5590   87.5142   15.7375 N.ar    1  UNL1       -0.3495
     20 H          63.8991   87.9307   14.9128 H       1  UNL1        0.1661
@<TRIPOS>BOND
     1     7     8    1
     2     8     1    1
     3     1     2   ar
     4     2     3   ar
     5     3     4   ar
     6     4     5   ar
     7     5     9    1
     8     9    10    1
     9     5     6   ar
    10     6    11    1
    11    11    12    2
    12    12    13    1
    13    13    14    2
    14    13    15    1
    15    15    16   ar
    16    16    17   ar
    17    17    18   ar
    18    18    19   ar
    19     6     1   ar
    20    19    15   ar
    21    19    20    1
@<TRIPOS>MOLECULE
*****
 20 21 0 0 0
SMALL
GASTEIGER

@<TRIPOS>ATOM
      1 C          63.3211   84.2323   10.2680 C.ar    1  UNL1        0.1416
      2 C          63.2967   84.4870    8.7900 C.ar    1  UNL1        0.0371
      3 C          62.4676   85.6074    8.2356 C.ar    1  UNL1        0.0062
      4 C          61.6629   86.4731    9.1592 C.ar    1  UNL1        0.0371
      5 C          61.6874   86.2184   10.6372 C.ar    1  UNL1        0.1416
      6 C          62.5165   85.0980   11.1916 C.ar    1  UNL1        0.0680
      7 C          63.5758   81.7295   10.9170 C.3     1  UNL1        0.2525
      8 O          64.1502   83.1119   10.8223 O.3     1  UNL1       -0.4713
      9 O          60.8828   87.0841   11.5609 O.3     1  UNL1       -0.4713
     10 C          60.4955   88.4712   11.1414 C.3     1  UNL1        0.2525
     11 C          62.5409   84.8433   12.6696 C.2     1  UNL1        0.0094
     12 C          63.8279   84.9650   13.4305 C.2     1  UNL1        0.0437
     13 C          63.8524   84.7103   14.9084 C.2     1  UNL1        0.2111
     14 O          64.2668   83.3668   15.4313 O.2     1  UNL1       -0.2850
     15 C          63.4626   85.7992   15.8637 C.ar    1  UNL1        0.0961
     16 C          62.7962   85.6082   17.1939 C.ar    1  UNL1        0.0218
     17 C          62.5924   86.9612   17.8087 C.ar    1  UNL1        0.0200
     18 C          63.1328   87.9883   16.8585 C.ar    1  UNL1        0.0725
     19 N          63.6706   87.2701   15.6564 N.ar    1  UNL1       -0.3495
     20 H          64.0870   87.6904   14.8695 H       1  UNL1        0.1661
@<TRIPOS>BOND
     1     7     8    1
     2     8     1    1
     3     1     2   ar
     4     2     3   ar
     5     3     4   ar
     6     4     5   ar
     7     5     9    1
     8     9    10    1
     9     5     6   ar
    10     6    11    1
    11    11    12    2
    12    12    13    1
    13    13    14    2
    14    13    15    1
    15    15    16   ar
    16    16    17   ar
    17    17    18   ar
    18    18    19   ar
    19     6     1   ar
    20    19    15   ar
    21    19    20    1
@<TRIPOS>MOLECULE
*****
 20 21 0 0 0
SMALL
GASTEIGER

@<TRIPOS>ATOM
      1 C          62.4767   88.1170   11.4568 C.ar    1  UNL1        0.1416
      2 C          62.3119   89.5456   11.0303 C.ar    1  UNL1        0.0371
      3 C          61.4229   89.8843    9.8707 C.ar    1  UNL1        0.0062
      4 C          60.6987   88.7945    9.1374 C.ar    1  UNL1        0.0371
      5 C          60.8635   87.3659    9.5638 C.ar    1  UNL1        0.1416
      6 C          61.7525   87.0271   10.7235 C.ar    1  UNL1        0.0680
      7 C          63.8711   88.8662   13.5170 C.3     1  UNL1        0.2525
      8 O          63.3657   87.7783   12.6165 O.3     1  UNL1       -0.4713
      9 O          60.1393   86.2759    8.8306 O.3     1  UNL1       -0.4713
     10 C          59.1795   86.6214    7.7308 C.3     1  UNL1        0.2525
     11 C          61.9173   85.5985   11.1500 C.2     1  UNL1        0.0094
     12 C          63.0973   84.8047   10.6728 C.2     1  UNL1        0.0437
     13 C          63.2621   83.3761   11.0992 C.2     1  UNL1        0.2111
     14 O          63.8647   82.3768   10.1566 O.2     1  UNL1       -0.2850
     15 C          62.8244   82.9467   12.4682 C.ar    1  UNL1        0.0961
     16 C          62.1265   81.6633   12.8086 C.ar    1  UNL1        0.0218
     17 C          61.8785   81.6487   14.2878 C.ar    1  UNL1        0.0200
     18 C          62.4231   82.9231   14.8617 C.ar    1  UNL1        0.0725
     19 N          63.0077   83.7253   13.7371 N.ar    1  UNL1       -0.3495
     20 H          63.4364   84.6078   13.8177 H       1  UNL1        0.1661
@<TRIPOS>BOND
     1     7     8    1
     2     8     1    1
     3     1     2   ar
     4     2     3   ar
     5     3     4   ar
     6     4     5   ar
     7     5     9    1
     8     9    10    1
     9     5     6   ar
    10     6    11    1
    11    11    12    2
    12    12    13    1
    13    13    14    2
    14    13    15    1
    15    15    16   ar
    16    16    17   ar
    17    17    18   ar
    18    18    19   ar
    19     6     1   ar
    20    19    15   ar
    21    19    20    1
@<TRIPOS>MOLECULE
*****
 20 21 0 0 0
SMALL
GASTEIGER

@<TRIPOS>ATOM
      1 C          60.8826   87.3825    9.5857 C.ar    1  UNL1        0.1416
      2 C          60.7030   88.8058    9.1479 C.ar    1  UNL1        0.0371
      3 C          61.4199   89.9086    9.8690 C.ar    1  UNL1        0.0062
      4 C          62.3164   89.5879   11.0281 C.ar    1  UNL1        0.0371
      5 C          62.4960   88.1646   11.4659 C.ar    1  UNL1        0.1416
      6 C          61.7791   87.0619   10.7448 C.ar    1  UNL1        0.0680
      7 C          59.2721   86.6001    7.7032 C.3     1  UNL1        0.2525
      8 O          60.1657   86.2798    8.8646 O.3     1  UNL1       -0.4713
      9 O          63.3926   87.8439   12.6250 O.3     1  UNL1       -0.4713
     10 C          63.8675   88.9405   13.5316 C.3     1  UNL1        0.2525
     11 C          61.9588   85.6385   11.1827 C.2     1  UNL1        0.0094
     12 C          63.1024   84.8281   10.6484 C.2     1  UNL1        0.0437
     13 C          63.2821   83.4047   11.0863 C.2     1  UNL1        0.2111
     14 O          63.8953   82.4043   10.1518 O.2     1  UNL1       -0.2850
     15 C          62.8486   82.9818   12.4586 C.ar    1  UNL1        0.0961
     16 C          62.1438   81.7040   12.8059 C.ar    1  UNL1        0.0218
     17 C          61.9034   81.6949   14.2865 C.ar    1  UNL1        0.0200
     18 C          62.4596   82.9669   14.8542 C.ar    1  UNL1        0.0725
     19 N          63.0438   83.7623   13.7245 N.ar    1  UNL1       -0.3495
     20 H          63.4789   84.6421   13.8006 H       1  UNL1        0.1661
@<TRIPOS>BOND
     1     7     8    1
     2     8     1    1
     3     1     2   ar
     4     2     3   ar
     5     3     4   ar
     6     4     5   ar
     7     5     9    1
     8     9    10    1
     9     5     6   ar
    10     6    11    1
    11    11    12    2
    12    12    13    1
    13    13    14    2
    14    13    15    1
    15    15    16   ar
    16    16    17   ar
    17    17    18   ar
    18    18    19   ar
    19     6     1   ar
    20    19    15   ar
    21    19    20    1
@<TRIPOS>MOLECULE
*****
 20 21 0 0 0
SMALL
GASTEIGER

@<TRIPOS>ATOM
      1 C          62.7073   83.4322   13.3471 C.ar    1  UNL1        0.1416
      2 C          62.4500   82.4339   14.4366 C.ar    1  UNL1        0.0371
      3 C          62.4214   80.9681   14.1194 C.ar    1  UNL1        0.0062
      4 C          62.6500   80.5006   12.7126 C.ar    1  UNL1        0.0371
      5 C          62.9072   81.4988   11.6230 C.ar    1  UNL1        0.1416
      6 C          62.9359   82.9646   11.9403 C.ar    1  UNL1        0.0680
      7 C          63.9452   85.5009   14.3154 C.3     1  UNL1        0.2525
      8 O          62.7359   84.8980   13.6643 O.3     1  UNL1       -0.4713
      9 O          63.1359   81.0314   10.2162 O.3     1  UNL1       -0.4713
     10 C          62.8647   79.6030    9.8471 C.3     1  UNL1        0.2525
     11 C          63.1931   83.9629   10.8506 C.2     1  UNL1        0.0094
     12 C          62.1393   84.9675   10.4897 C.2     1  UNL1        0.0437
     13 C          62.3964   85.9658    9.4001 C.2     1  UNL1        0.2111
     14 O          63.2696   85.5983    8.2370 O.2     1  UNL1       -0.2850
     15 C          61.7806   87.3315    9.4735 C.ar    1  UNL1        0.0961
     16 C          62.3507   88.5184   10.1920 C.ar    1  UNL1        0.0218
     17 C          61.4089   89.6706   10.0039 C.ar    1  UNL1        0.0200
     18 C          60.2567   89.1959    9.1691 C.ar    1  UNL1        0.0725
     19 N          60.4864   87.7503    8.8414 N.ar    1  UNL1       -0.3495
     20 H          59.8920   87.1769    8.3054 H       1  UNL1        0.1661
@<TRIPOS>BOND
     1     7     8    1
     2     8     1    1
     3     1     2   ar
     4     2     3   ar
     5     3     4   ar
     6     4     5   ar
     7     5     9    1
     8     9    10    1
     9     5     6   ar
    10     6    11    1
    11    11    12    2
    12    12    13    1
    13    13    14    2
    14    13    15    1
    15    15    16   ar
    16    16    17   ar
    17    17    18   ar
    18    18    19   ar
    19     6     1   ar
    20    19    15   ar
    21    19    20    1
@<TRIPOS>MOLECULE
*****
 20 21 0 0 0
SMALL
GASTEIGER

@<TRIPOS>ATOM
      1 C          62.9284   87.4618   12.0670 C.ar    1  UNL1        0.1416
      2 C          62.2434   87.0046   10.8133 C.ar    1  UNL1        0.0371
      3 C          61.8674   88.0017    9.7577 C.ar    1  UNL1        0.0062
      4 C          62.1763   89.4561    9.9558 C.ar    1  UNL1        0.0371
      5 C          62.8612   89.9134   11.2095 C.ar    1  UNL1        0.1416
      6 C          63.2372   88.9162   12.2651 C.ar    1  UNL1        0.0680
      7 C          63.2583   84.9967   12.8181 C.3     1  UNL1        0.2525
      8 O          63.3044   86.4647   13.1226 O.3     1  UNL1       -0.4713
      9 O          63.1701   91.3678   11.4076 O.3     1  UNL1       -0.4713
     10 C          64.4642   91.9351   10.9040 C.3     1  UNL1        0.2525
     11 C          63.9222   89.3736   13.5188 C.2     1  UNL1        0.0094
     12 C          63.4222   90.5859   14.2470 C.2     1  UNL1        0.0437
     13 C          64.1071   91.0432   15.5007 C.2     1  UNL1        0.2111
     14 O          63.4440   90.8473   16.8318 O.2     1  UNL1       -0.2850
     15 C          65.4552   91.6965   15.4233 C.ar    1  UNL1        0.0961
     16 C          66.5350   91.3754   14.4329 C.ar    1  UNL1        0.0218
     17 C          67.7073   92.2660   14.7202 C.ar    1  UNL1        0.0200
     18 C          67.3520   93.1375   15.8882 C.ar    1  UNL1        0.0725
     19 N          65.9602   92.7855   16.3227 N.ar    1  UNL1       -0.3495
     20 H          65.4650   93.1971   17.0675 H       1  UNL1        0.1661
@<TRIPOS>BOND
     1     7     8    1
     2     8     1    1
     3     1     2   ar
     4     2     3   ar
     5     3     4   ar
     6     4     5   ar
     7     5     9    1
     8     9    10    1
     9     5     6   ar
    10     6    11    1
    11    11    12    2
    12    12    13    1
    13    13    14    2
    14    13    15    1
    15    15    16   ar
    16    16    17   ar
    17    17    18   ar
    18    18    19   ar
    19     6     1   ar
    20    19    15   ar
    21    19    20    1
@<TRIPOS>MOLECULE
*****
 20 21 0 0 0
SMALL
GASTEIGER

@<TRIPOS>ATOM
      1 C          62.8523   82.6742   11.9247 C.ar    1  UNL1        0.1416
      2 C          62.7441   81.3007   12.5176 C.ar    1  UNL1        0.0371
      3 C          62.4886   81.1357   13.9865 C.ar    1  UNL1        0.0062
      4 C          62.3415   82.3444   14.8625 C.ar    1  UNL1        0.0371
      5 C          62.4498   83.7180   14.2696 C.ar    1  UNL1        0.1416
      6 C          62.7052   83.8829   12.8008 C.ar    1  UNL1        0.0680
      7 C          64.5155   82.8963    9.9412 C.3     1  UNL1        0.2525
      8 O          63.1077   82.8392   10.4559 O.3     1  UNL1       -0.4713
      9 O          62.3027   84.9267   15.1457 O.3     1  UNL1       -0.4713
     10 C          63.4885   85.4593   15.8942 C.3     1  UNL1        0.2525
     11 C          62.8135   85.2566   12.2079 C.2     1  UNL1        0.0094
     12 C          61.6633   85.8336   11.4372 C.2     1  UNL1        0.0437
     13 C          61.7715   87.2072   10.8444 C.2     1  UNL1        0.2111
     14 O          62.7323   88.2015   11.4260 O.2     1  UNL1       -0.2850
     15 C          60.9190   87.5865    9.6699 C.ar    1  UNL1        0.0961
     16 C          60.1854   86.6371    8.7697 C.ar    1  UNL1        0.0218
     17 C          59.4634   87.4457    7.7329 C.ar    1  UNL1        0.0200
     18 C          59.7508   88.8948    7.9923 C.ar    1  UNL1        0.0725
     19 N          60.6504   88.9819    9.1895 N.ar    1  UNL1       -0.3495
     20 H          61.0026   89.8095    9.5897 H       1  UNL1        0.1661
@<TRIPOS>BOND
     1     7     8    1
     2     8     1    1
     3     1     2   ar
     4     2     3   ar
     5     3     4   ar
     6     4     5   ar
     7     5     9    1
     8     9    10    1
     9     5     6   ar
    10     6    11    1
    11    11    12    2
    12    12    13    1
    13    13    14    2
    14    13    15    1
    15    15    16   ar
    16    16    17   ar
    17    17    18   ar
    18    18    19   ar
    19     6     1   ar
    20    19    15   ar
    21    19    20    1
@<TRIPOS>MOLECULE
*****
 20 21 0 0 0
SMALL
GASTEIGER

@<TRIPOS>ATOM
      1 C          63.1632   84.3344   12.8729 C.ar    1  UNL1        0.1416
      2 C          64.1938   83.2710   13.1110 C.ar    1  UNL1        0.0371
      3 C          64.7849   82.5263   11.9508 C.ar    1  UNL1        0.0062
      4 C          64.3453   82.8451   10.5525 C.ar    1  UNL1        0.0371
      5 C          63.3146   83.9085   10.3145 C.ar    1  UNL1        0.1416
      6 C          62.7236   84.6532   11.4747 C.ar    1  UNL1        0.0680
      7 C          62.3883   84.3890   15.3522 C.3     1  UNL1        0.2525
      8 O          62.5721   85.0791   14.0331 O.3     1  UNL1       -0.4713
      9 O          62.8750   84.2274    8.9162 O.3     1  UNL1       -0.4713
     10 C          63.2773   85.5254    8.2811 C.3     1  UNL1        0.2525
     11 C          61.6928   85.7168   11.2366 C.2     1  UNL1        0.0094
     12 C          62.1101   87.1528   11.1201 C.2     1  UNL1        0.0437
     13 C          61.0795   88.2163   10.8820 C.2     1  UNL1        0.2111
     14 O          60.7300   89.1806   11.9766 O.2     1  UNL1       -0.2850
     15 C          60.3982   88.3157    9.5493 C.ar    1  UNL1        0.0961
     16 C          59.6670   87.2094    8.8483 C.ar    1  UNL1        0.0218
     17 C          59.1454   87.7487    7.5493 C.ar    1  UNL1        0.0200
     18 C          59.5544   89.1883    7.4476 C.ar    1  UNL1        0.0725
     19 N          60.3286   89.5387    8.6836 N.ar    1  UNL1       -0.3495
     20 H          60.7221   90.4171    8.8904 H       1  UNL1        0.1661
@<TRIPOS>BOND
     1     7     8    1
     2     8     1    1
     3     1     2   ar
     4     2     3   ar
     5     3     4   ar
     6     4     5   ar
     7     5     9    1
     8     9    10    1
     9     5     6   ar
    10     6    11    1
    11    11    12    2
    12    12    13    1
    13    13    14    2
    14    13    15    1
    15    15    16   ar
    16    16    17   ar
    17    17    18   ar
    18    18    19   ar
    19     6     1   ar
    20    19    15   ar
    21    19    20    1
@<TRIPOS>MOLECULE
*****
 20 21 0 0 0
SMALL
GASTEIGER

@<TRIPOS>ATOM
      1 C          63.2690   84.4268   10.0834 C.ar    1  UNL1        0.1416
      2 C          63.6724   82.9886    9.9458 C.ar    1  UNL1        0.0371
      3 C          63.6304   82.0805   11.1389 C.ar    1  UNL1        0.0062
      4 C          63.1850   82.6104   12.4696 C.ar    1  UNL1        0.0371
      5 C          62.7816   84.0486   12.6071 C.ar    1  UNL1        0.1416
      6 C          62.8236   84.9567   11.4140 C.ar    1  UNL1        0.0680
      7 C          62.6904   84.9012    7.5954 C.3     1  UNL1        0.2525
      8 O          63.3110   85.3349    8.8903 O.3     1  UNL1       -0.4713
      9 O          62.3361   84.5786   13.9378 O.3     1  UNL1       -0.4713
     10 C          62.5604   83.7693   15.1807 C.3     1  UNL1        0.2525
     11 C          62.4201   86.3949   11.5516 C.2     1  UNL1        0.0094
     12 C          61.0717   86.8447   11.0726 C.2     1  UNL1        0.0437
     13 C          60.6682   88.2829   11.2101 C.2     1  UNL1        0.2111
     14 O          59.2158   88.6577   11.2092 O.2     1  UNL1       -0.2850
     15 C          61.7171   89.3462   11.3486 C.ar    1  UNL1        0.0961
     16 C          62.4314   90.0321   10.2220 C.ar    1  UNL1        0.0218
     17 C          63.3917   91.0201   10.8151 C.ar    1  UNL1        0.0200
     18 C          63.2708   90.9448   12.3084 C.ar    1  UNL1        0.0725
     19 N          62.2359   89.9103   12.6381 N.ar    1  UNL1       -0.3495
     20 H          61.9477   89.6476   13.5421 H       1  UNL1        0.1661
@<TRIPOS>BOND
     1     7     8    1
     2     8     1    1
     3     1     2   ar
     4     2     3   ar
     5     3     4   ar
     6     4     5   ar
     7     5     9    1
     8     9    10    1
     9     5     6   ar
    10     6    11    1
    11    11    12    2
    12    12    13    1
    13    13    14    2
    14    13    15    1
    15    15    16   ar
    16    16    17   ar
    17    17    18   ar
    18    18    19   ar
    19     6     1   ar
    20    19    15   ar
    21    19    20    1
