@<TRIPOS>MOLECULE
*****
 45 48 0 0 0
SMALL
GASTEIGER

@<TRIPOS>ATOM
      1 N          64.1387   90.8851   12.8563 N.pl3   1  UNL1       -0.3043
      2 C          64.2292   89.3880   12.8726 C.3     1  UNL1        0.1123
      3 C          63.2988   88.5711   12.0258 C.3     1  UNL1        0.1149
      4 N          62.2779   89.2514   11.1626 N.am    1  UNL1       -0.2747
      5 C          61.3475   88.4345   10.3159 C.2     1  UNL1        0.2442
      6 O          60.3267   89.1149    9.4527 O.2     1  UNL1       -0.2731
      7 C          62.1874   90.7486   11.1463 C.3     1  UNL1        0.1149
      8 C          63.1179   91.5655   11.9932 C.3     1  UNL1        0.1123
      9 C          66.0004   92.6860   13.0593 C.ar    1  UNL1        0.0111
     10 C          66.9308   93.5028   13.9061 C.ar    1  UNL1        0.0282
     11 C          66.9299   93.3356   15.3968 C.ar    1  UNL1        0.1400
     12 F          67.8604   94.1525   16.2436 F       1  UNL1       -0.2042
     13 C          65.9987   92.3516   16.0406 C.ar    1  UNL1        0.0309
     14 C          65.0683   91.5348   15.1938 C.ar    1  UNL1        0.0166
     15 C          65.0692   91.7020   13.7031 C.ar    1  UNL1        0.0456
     16 C          66.0013   92.8532   11.5686 C.3     1  UNL1        0.0953
     17 N          65.2822   94.0116   10.9434 N.am    1  UNL1       -0.3011
     18 C          66.0619   95.1142   10.2904 C.2     1  UNL1        0.2367
     19 O          67.5606   95.0584   10.2626 O.2     1  UNL1       -0.2737
     20 H          64.2986   94.0483   10.9617 H       1  UNL1        0.1497
     21 C          65.3428   96.2727    9.6652 C.3     1  UNL1        0.1284
     22 C          65.8339   96.8501    8.3708 C.3     1  UNL1        0.0267
     23 N          64.1326   96.8538   10.3344 N.3     1  UNL1       -0.3150
     24 H          63.9427   96.3429   11.1965 H       1  UNL1        0.1192
     25 H          63.3295   96.7777    9.7101 H       1  UNL1        0.1192
     26 C          66.7211   91.8619   10.7032 C.3     1  UNL1        0.0242
     27 C          68.9319   92.3133    9.4152 C.3     1  UNL1        0.0001
     28 C          68.2204   91.8580   10.6548 C.3     1  UNL1        0.0020
     29 C          69.0081   91.3989   11.8459 C.3     1  UNL1        0.0001
     30 C          61.4380   86.9374   10.3322 C.3     1  UNL1        0.1564
     31 N          61.6227   86.1831    9.0489 N.am    1  UNL1       -0.2727
     32 C          62.8964   85.5481    8.5749 C.3     1  UNL1        0.0943
     33 C          62.6271   84.9040    7.2473 C.3     1  UNL1        0.0311
     34 C          61.1869   85.1409    6.9008 C.3     1  UNL1        0.0870
     35 C          60.5663   85.9314    8.0142 C.2     1  UNL1        0.2260
     36 O          59.1396   86.3898    8.0812 O.2     1  UNL1       -0.2749
     37 C          61.3437   86.1944   11.6318 C.3     1  UNL1        0.0564
     38 C          62.2662   85.0440   11.9068 C.ar    1  UNL1       -0.0094
     39 C          62.1424   83.7772   11.1130 C.ar    1  UNL1       -0.0025
     40 C          63.0648   82.6267   11.3879 C.ar    1  UNL1        0.0111
     41 C          64.1111   82.7431   12.4566 C.ar    1  UNL1        0.0585
     42 CL         65.0335   81.5927   12.7315 Cl      1  UNL1       -0.0822
     43 C          64.2348   84.0099   13.2502 C.ar    1  UNL1        0.0225
     44 C          63.3124   85.1603   12.9753 C.ar    1  UNL1        0.0546
     45 CL         63.5223   85.7368   13.4843 Cl      1  UNL1       -0.0825
@<TRIPOS>BOND
     1    27    28    1
     2    28    29    1
     3    28    26    1
     4    16    26    1
     5    16    17    1
     6    17    18   am
     7    18    19    2
     8    18    21    1
     9    21    22    1
    10    21    23    1
    11    16     9    1
    12     9    10   ar
    13    10    11   ar
    14    11    12    1
    15    11    13   ar
    16    13    14   ar
    17    14    15   ar
    18    15     1    1
    19     1     2    1
    20     2     3    1
    21     3     4    1
    22     4     5   am
    23     5     6    2
    24     5    30    1
    25    30    37    1
    26    37    38    1
    27    38    39   ar
    28    39    40   ar
    29    40    41   ar
    30    41    42    1
    31    41    43   ar
    32    43    44   ar
    33    44    45    1
    34    30    31    1
    35    31    32    1
    36    32    33    1
    37    33    34    1
    38    34    35    1
    39    35    36    2
    40     4     7    1
    41     7     8    1
    42    15     9   ar
    43     8     1    1
    44    44    38   ar
    45    35    31   am
    46    17    20    1
    47    23    24    1
    48    23    25    1
@<TRIPOS>MOLECULE
*****
 45 48 0 0 0
SMALL
GASTEIGER

@<TRIPOS>ATOM
      1 N          61.6228   86.2784    9.5122 N.pl3   1  UNL1       -0.3043
      2 C          61.2465   85.9499   10.9266 C.3     1  UNL1        0.1123
      3 C          62.0823   84.9912   11.7217 C.3     1  UNL1        0.1149
      4 N          63.2945   84.3609   11.1025 N.am    1  UNL1       -0.2747
      5 C          64.1302   83.4022   11.8976 C.2     1  UNL1        0.2442
      6 O          65.3424   82.7720   11.2783 O.2     1  UNL1       -0.2731
      7 C          63.6708   84.6894    9.6881 C.3     1  UNL1        0.1149
      8 C          62.8349   85.6482    8.8929 C.3     1  UNL1        0.1123
      9 C          60.5236   88.6171    9.2429 C.ar    1  UNL1        0.0111
     10 C          59.6878   89.5758    8.4478 C.ar    1  UNL1        0.0282
     11 C          59.1153   89.1546    7.1268 C.ar    1  UNL1        0.1400
     12 F          58.2795   90.1134    6.3317 F       1  UNL1       -0.2042
     13 C          59.3787   87.7748    6.6010 C.ar    1  UNL1        0.0309
     14 C          60.2146   86.8161    7.3961 C.ar    1  UNL1        0.0166
     15 C          60.7870   87.2372    8.7171 C.ar    1  UNL1        0.0456
     16 C          61.0960   89.0382   10.5639 C.3     1  UNL1        0.0953
     17 N          62.3646   89.8372   10.6111 N.am    1  UNL1       -0.3011
     18 C          62.9010   90.3158   11.9276 C.2     1  UNL1        0.2367
     19 O          62.1688   89.9954   13.1969 O.2     1  UNL1       -0.2737
     20 H          62.8451   90.0475    9.7780 H       1  UNL1        0.1497
     21 C          64.1696   91.1148   11.9748 C.3     1  UNL1        0.1284
     22 C          65.0026   91.1266   13.2222 C.3     1  UNL1        0.0267
     23 N          64.6053   91.9019   10.7745 N.3     1  UNL1       -0.3150
     24 H          63.9262   91.7802   10.0233 H       1  UNL1        0.1192
     25 H          65.5187   91.5708   10.4640 H       1  UNL1        0.1192
     26 C          60.3998   88.6604   11.8377 C.3     1  UNL1        0.0242
     27 C          58.1704   88.7287   13.1701 C.3     1  UNL1        0.0001
     28 C          59.1617   89.3936   12.2617 C.3     1  UNL1        0.0020
     29 C          58.9151   90.7917   11.7773 C.3     1  UNL1        0.0001
     30 C          63.7539   83.0737   13.3119 C.3     1  UNL1        0.1564
     31 N          62.6143   82.1379   13.5868 N.am    1  UNL1       -0.2727
     32 C          61.5477   82.3281   14.6241 C.3     1  UNL1        0.0943
     33 C          60.6155   81.1553   14.5510 C.3     1  UNL1        0.0311
     34 C          61.1060   80.2401   13.4684 C.3     1  UNL1        0.0870
     35 C          62.3414   80.8474   12.8725 C.2     1  UNL1        0.2260
     36 O          63.1600   80.2662   11.7581 O.2     1  UNL1       -0.2749
     37 C          64.5171   83.6811   14.4515 C.3     1  UNL1        0.0564
     38 C          64.1726   85.0585   14.9353 C.ar    1  UNL1       -0.0094
     39 C          64.7128   86.2615   14.2204 C.ar    1  UNL1       -0.0025
     40 C          64.3684   87.6389   14.7042 C.ar    1  UNL1        0.0111
     41 C          63.4836   87.8133   15.9030 C.ar    1  UNL1        0.0585
     42 CL         63.1391   89.1907   16.3868 Cl      1  UNL1       -0.0822
     43 C          62.9434   86.6103   16.6178 C.ar    1  UNL1        0.0225
     44 C          63.2879   85.2329   16.1340 C.ar    1  UNL1        0.0546
     45 CL         62.9181   84.7278   16.6275 Cl      1  UNL1       -0.0825
@<TRIPOS>BOND
     1    27    28    1
     2    28    29    1
     3    28    26    1
     4    16    26    1
     5    16    17    1
     6    17    18   am
     7    18    19    2
     8    18    21    1
     9    21    22    1
    10    21    23    1
    11    16     9    1
    12     9    10   ar
    13    10    11   ar
    14    11    12    1
    15    11    13   ar
    16    13    14   ar
    17    14    15   ar
    18    15     1    1
    19     1     2    1
    20     2     3    1
    21     3     4    1
    22     4     5   am
    23     5     6    2
    24     5    30    1
    25    30    37    1
    26    37    38    1
    27    38    39   ar
    28    39    40   ar
    29    40    41   ar
    30    41    42    1
    31    41    43   ar
    32    43    44   ar
    33    44    45    1
    34    30    31    1
    35    31    32    1
    36    32    33    1
    37    33    34    1
    38    34    35    1
    39    35    36    2
    40     4     7    1
    41     7     8    1
    42    15     9   ar
    43     8     1    1
    44    44    38   ar
    45    35    31   am
    46    17    20    1
    47    23    24    1
    48    23    25    1
@<TRIPOS>MOLECULE
*****
 45 48 0 0 0
SMALL
GASTEIGER

@<TRIPOS>ATOM
      1 N          61.6556   86.0982    9.3071 N.pl3   1  UNL1       -0.3043
      2 C          61.3722   85.7982   10.7492 C.3     1  UNL1        0.1123
      3 C          62.1810   84.7627   11.4728 C.3     1  UNL1        0.1149
      4 N          63.2732   84.0272   10.7543 N.am    1  UNL1       -0.2747
      5 C          64.0819   82.9917   11.4779 C.2     1  UNL1        0.2442
      6 O          65.1740   82.2562   10.7594 O.2     1  UNL1       -0.2731
      7 C          63.5565   84.3271    9.3122 C.3     1  UNL1        0.1149
      8 C          62.7476   85.3627    8.5886 C.3     1  UNL1        0.1123
      9 C          60.6077   88.4738    9.2136 C.ar    1  UNL1        0.0111
     10 C          59.7989   89.5092    8.4901 C.ar    1  UNL1        0.0282
     11 C          59.2291   89.2046    7.1363 C.ar    1  UNL1        0.1400
     12 F          58.4203   90.2402    6.4127 F       1  UNL1       -0.2042
     13 C          59.4682   87.8646    6.5062 C.ar    1  UNL1        0.0309
     14 C          60.2770   86.8291    7.2298 C.ar    1  UNL1        0.0166
     15 C          60.8467   87.1337    8.5835 C.ar    1  UNL1        0.0456
     16 C          61.1775   88.7783   10.5674 C.3     1  UNL1        0.0953
     17 N          60.4144   88.4049   11.8036 N.am    1  UNL1       -0.3011
     18 C          59.3121   89.2922   12.3013 C.2     1  UNL1        0.2367
     19 O          58.9729   90.5529   11.5627 O.2     1  UNL1       -0.2737
     20 H          60.6371   87.5775   12.2883 H       1  UNL1        0.1497
     21 C          58.5490   88.9187   13.5375 C.3     1  UNL1        0.1284
     22 C          59.2080   89.0103   14.8819 C.3     1  UNL1        0.0267
     23 N          57.1271   88.4537   13.4294 N.3     1  UNL1       -0.3150
     24 H          56.8433   88.4526   12.4497 H       1  UNL1        0.1192
     25 H          56.5225   89.0827   13.9578 H       1  UNL1        0.1192
     26 C          62.5103   89.4563   10.6849 C.3     1  UNL1        0.0242
     27 C          63.5131   88.3777   12.8252 C.3     1  UNL1        0.0001
     28 C          63.1634   89.5990   12.0278 C.3     1  UNL1        0.0020
     29 C          63.4668   90.9630   12.5731 C.3     1  UNL1        0.0001
     30 C          63.7986   82.6917   12.9200 C.3     1  UNL1        0.1564
     31 N          62.6543   81.7948   13.2887 N.am    1  UNL1       -0.2727
     32 C          61.6289   82.0647   14.3497 C.3     1  UNL1        0.0943
     33 C          60.6753   80.9071   14.3779 C.3     1  UNL1        0.0311
     34 C          61.1115   79.9218   13.3344 C.3     1  UNL1        0.0870
     35 C          62.3346   80.4704   12.6613 C.2     1  UNL1        0.2260
     36 O          63.1030   79.8104   11.5549 O.2     1  UNL1       -0.2749
     37 C          64.6596   83.2887   13.9934 C.3     1  UNL1        0.0564
     38 C          64.1180   84.3793   14.8694 C.ar    1  UNL1       -0.0094
     39 C          62.8507   84.1611   15.6418 C.ar    1  UNL1       -0.0025
     40 C          62.3091   85.2516   16.5178 C.ar    1  UNL1        0.0111
     41 C          63.0347   86.5604   16.6213 C.ar    1  UNL1        0.0585
     42 CL         62.4931   87.6510   17.4973 Cl      1  UNL1       -0.0822
     43 C          64.3019   86.7786   15.8489 C.ar    1  UNL1        0.0225
     44 C          64.8435   85.6880   14.9730 C.ar    1  UNL1        0.0546
     45 CL         65.5106   85.9787   14.6474 Cl      1  UNL1       -0.0825
@<TRIPOS>BOND
     1    27    28    1
     2    28    29    1
     3    28    26    1
     4    16    26    1
     5    16    17    1
     6    17    18   am
     7    18    19    2
     8    18    21    1
     9    21    22    1
    10    21    23    1
    11    16     9    1
    12     9    10   ar
    13    10    11   ar
    14    11    12    1
    15    11    13   ar
    16    13    14   ar
    17    14    15   ar
    18    15     1    1
    19     1     2    1
    20     2     3    1
    21     3     4    1
    22     4     5   am
    23     5     6    2
    24     5    30    1
    25    30    37    1
    26    37    38    1
    27    38    39   ar
    28    39    40   ar
    29    40    41   ar
    30    41    42    1
    31    41    43   ar
    32    43    44   ar
    33    44    45    1
    34    30    31    1
    35    31    32    1
    36    32    33    1
    37    33    34    1
    38    34    35    1
    39    35    36    2
    40     4     7    1
    41     7     8    1
    42    15     9   ar
    43     8     1    1
    44    44    38   ar
    45    35    31   am
    46    17    20    1
    47    23    24    1
    48    23    25    1
@<TRIPOS>MOLECULE
*****
 45 48 0 0 0
SMALL
GASTEIGER

@<TRIPOS>ATOM
      1 N          63.3905   85.6614   13.7967 N.pl3   1  UNL1       -0.3043
      2 C          63.9786   86.7782   12.9861 C.3     1  UNL1        0.1123
      3 C          64.1546   88.1366   13.5974 C.3     1  UNL1        0.1149
      4 N          63.7425   88.3783   15.0193 N.am    1  UNL1       -0.2747
      5 C          63.9185   89.7367   15.6306 C.2     1  UNL1        0.2442
      6 O          63.5064   89.9784   17.0524 O.2     1  UNL1       -0.2731
      7 C          63.1544   87.2616   15.8299 C.3     1  UNL1        0.1149
      8 C          62.9784   85.9031   15.2185 C.3     1  UNL1        0.1123
      9 C          62.6624   84.1712   11.7969 C.ar    1  UNL1        0.0111
     10 C          62.4864   82.8128   11.1857 C.ar    1  UNL1        0.0282
     11 C          62.8627   81.5862   11.9628 C.ar    1  UNL1        0.1400
     12 F          62.6867   80.2277   11.3514 F       1  UNL1       -0.2042
     13 C          63.4149   81.7180   13.3512 C.ar    1  UNL1        0.0309
     14 C          63.5908   83.0764   13.9624 C.ar    1  UNL1        0.0166
     15 C          63.2146   84.3030   13.1853 C.ar    1  UNL1        0.0456
     16 C          62.2861   85.3978   11.0198 C.3     1  UNL1        0.0953
     17 N          61.2838   86.3627   11.5805 N.am    1  UNL1       -0.3011
     18 C          61.3154   87.8033   11.1640 C.2     1  UNL1        0.2367
     19 O          62.3493   88.2791   10.1870 O.2     1  UNL1       -0.2737
     20 H          60.6052   86.0504   12.2217 H       1  UNL1        0.1497
     21 C          60.3130   88.7683   11.7247 C.3     1  UNL1        0.1284
     22 C          60.5140   90.2444   11.5500 C.3     1  UNL1        0.0267
     23 N          59.1098   88.2570   12.4600 N.3     1  UNL1       -0.3150
     24 H          59.1337   87.2375   12.4838 H       1  UNL1        0.1192
     25 H          58.2629   88.5662   11.9828 H       1  UNL1        0.1192
     26 C          62.9121   85.6595    9.6821 C.3     1  UNL1        0.0242
     27 C          62.7391   84.7505    7.2544 C.3     1  UNL1        0.0001
     28 C          62.1172   85.4479    8.4277 C.3     1  UNL1        0.0020
     29 C          60.7004   85.9339    8.3468 C.3     1  UNL1        0.0001
     30 C          64.5066   90.8535   14.8200 C.3     1  UNL1        0.1564
     31 N          65.7966   91.4900   15.2450 N.am    1  UNL1       -0.2727
     32 C          67.1462   91.2352   14.6418 C.3     1  UNL1        0.0943
     33 C          68.1473   92.0807   15.3717 C.3     1  UNL1        0.0311
     34 C          67.4164   92.8581   16.4261 C.3     1  UNL1        0.0870
     35 C          65.9636   92.4930   16.3477 C.2     1  UNL1        0.2260
     36 O          64.8699   93.0356   17.2191 O.2     1  UNL1       -0.2749
     37 C          63.8046   91.3337   13.5845 C.3     1  UNL1        0.0564
     38 C          64.5731   92.0572   12.5186 C.ar    1  UNL1       -0.0094
     39 C          65.5852   93.0971   12.8986 C.ar    1  UNL1       -0.0025
     40 C          66.3536   93.8205   11.8327 C.ar    1  UNL1        0.0111
     41 C          66.1099   93.5041   10.3868 C.ar    1  UNL1        0.0585
     42 CL         66.8783   94.2276    9.3209 Cl      1  UNL1       -0.0822
     43 C          65.0978   92.4643   10.0069 C.ar    1  UNL1        0.0225
     44 C          64.3294   91.7408   11.0728 C.ar    1  UNL1        0.0546
     45 CL         63.8465   91.2348   10.6903 Cl      1  UNL1       -0.0825
@<TRIPOS>BOND
     1    27    28    1
     2    28    29    1
     3    28    26    1
     4    16    26    1
     5    16    17    1
     6    17    18   am
     7    18    19    2
     8    18    21    1
     9    21    22    1
    10    21    23    1
    11    16     9    1
    12     9    10   ar
    13    10    11   ar
    14    11    12    1
    15    11    13   ar
    16    13    14   ar
    17    14    15   ar
    18    15     1    1
    19     1     2    1
    20     2     3    1
    21     3     4    1
    22     4     5   am
    23     5     6    2
    24     5    30    1
    25    30    37    1
    26    37    38    1
    27    38    39   ar
    28    39    40   ar
    29    40    41   ar
    30    41    42    1
    31    41    43   ar
    32    43    44   ar
    33    44    45    1
    34    30    31    1
    35    31    32    1
    36    32    33    1
    37    33    34    1
    38    34    35    1
    39    35    36    2
    40     4     7    1
    41     7     8    1
    42    15     9   ar
    43     8     1    1
    44    44    38   ar
    45    35    31   am
    46    17    20    1
    47    23    24    1
    48    23    25    1
@<TRIPOS>MOLECULE
*****
 45 48 0 0 0
SMALL
GASTEIGER

@<TRIPOS>ATOM
      1 N          63.7027   86.6453   14.7006 N.pl3   1  UNL1       -0.3043
      2 C          64.6403   87.3606   13.7737 C.3     1  UNL1        0.1123
      3 C          64.8884   88.8300   13.9448 C.3     1  UNL1        0.1149
      4 N          64.1988   89.5842   15.0429 N.am    1  UNL1       -0.2747
      5 C          64.4468   91.0536   15.2140 C.2     1  UNL1        0.2442
      6 O          63.7572   91.8077   16.3121 O.2     1  UNL1       -0.2731
      7 C          63.2612   88.8689   15.9699 C.3     1  UNL1        0.1149
      8 C          63.0131   87.3994   15.7987 C.3     1  UNL1        0.1123
      9 C          62.9050   84.6538   13.2352 C.ar    1  UNL1        0.0111
     10 C          62.6571   83.1844   13.0641 C.ar    1  UNL1        0.0282
     11 C          62.9587   82.2371   14.1873 C.ar    1  UNL1        0.1400
     12 F          62.7107   80.7676   14.0162 F       1  UNL1       -0.2042
     13 C          63.5083   82.7591   15.4816 C.ar    1  UNL1        0.0309
     14 C          63.7563   84.2285   15.6527 C.ar    1  UNL1        0.0166
     15 C          63.4547   85.1759   14.5295 C.ar    1  UNL1        0.0456
     16 C          62.6034   85.6011   12.1120 C.3     1  UNL1        0.0953
     17 N          62.7865   87.0771   12.3061 N.am    1  UNL1       -0.3011
     18 C          62.0494   88.0460   11.4297 C.2     1  UNL1        0.2367
     19 O          61.1293   87.5388   10.3592 O.2     1  UNL1       -0.2737
     20 H          63.3904   87.4100   13.0087 H       1  UNL1        0.1497
     21 C          62.2326   89.5221   11.6239 C.3     1  UNL1        0.1284
     22 C          62.8766   90.3458   10.5484 C.3     1  UNL1        0.0267
     23 N          61.7718   90.1744   12.8935 N.3     1  UNL1       -0.3150
     24 H          61.3611   89.4710   13.5076 H       1  UNL1        0.1192
     25 H          61.0735   90.8856   12.6764 H       1  UNL1        0.1192
     26 C          62.1186   85.0724   10.7947 C.3     1  UNL1        0.0242
     27 C          63.1141   85.3932    8.4164 C.3     1  UNL1        0.0001
     28 C          63.1053   84.6791    9.7354 C.3     1  UNL1        0.0020
     29 C          64.0831   83.5716    9.9953 C.3     1  UNL1        0.0001
     30 C          65.3844   91.7689   14.2870 C.3     1  UNL1        0.1564
     31 N          66.6942   92.2896   14.8000 N.am    1  UNL1       -0.2727
     32 C          66.9039   93.0382   16.0829 C.3     1  UNL1        0.0943
     33 C          68.3636   93.3644   16.1960 C.3     1  UNL1        0.0311
     34 C          69.0561   92.8175   14.9830 C.3     1  UNL1        0.0870
     35 C          68.0243   92.1532   14.1203 C.2     1  UNL1        0.2260
     36 O          68.2782   91.4722   12.8081 O.2     1  UNL1       -0.2749
     37 C          65.0122   91.9634   12.8471 C.3     1  UNL1        0.0564
     38 C          65.6362   93.0736   12.0545 C.ar    1  UNL1       -0.0094
     39 C          65.8462   94.4187   12.6845 C.ar    1  UNL1       -0.0025
     40 C          66.4702   95.5289   11.8920 C.ar    1  UNL1        0.0111
     41 C          66.8842   95.2940   10.4694 C.ar    1  UNL1        0.0585
     42 CL         67.5082   96.4042    9.6769 Cl      1  UNL1       -0.0822
     43 C          66.6742   93.9490    9.8395 C.ar    1  UNL1        0.0225
     44 C          66.0502   92.8388   10.6321 C.ar    1  UNL1        0.0546
     45 CL         66.0189   92.2102   10.1428 Cl      1  UNL1       -0.0825
@<TRIPOS>BOND
     1    27    28    1
     2    28    29    1
     3    28    26    1
     4    16    26    1
     5    16    17    1
     6    17    18   am
     7    18    19    2
     8    18    21    1
     9    21    22    1
    10    21    23    1
    11    16     9    1
    12     9    10   ar
    13    10    11   ar
    14    11    12    1
    15    11    13   ar
    16    13    14   ar
    17    14    15   ar
    18    15     1    1
    19     1     2    1
    20     2     3    1
    21     3     4    1
    22     4     5   am
    23     5     6    2
    24     5    30    1
    25    30    37    1
    26    37    38    1
    27    38    39   ar
    28    39    40   ar
    29    40    41   ar
    30    41    42    1
    31    41    43   ar
    32    43    44   ar
    33    44    45    1
    34    30    31    1
    35    31    32    1
    36    32    33    1
    37    33    34    1
    38    34    35    1
    39    35    36    2
    40     4     7    1
    41     7     8    1
    42    15     9   ar
    43     8     1    1
    44    44    38   ar
    45    35    31   am
    46    17    20    1
    47    23    24    1
    48    23    25    1
@<TRIPOS>MOLECULE
*****
 45 48 0 0 0
SMALL
GASTEIGER

@<TRIPOS>ATOM
      1 N          62.6404   88.2294   10.1200 N.pl3   1  UNL1       -0.3043
      2 C          62.9190   87.8964   11.5558 C.3     1  UNL1        0.1123
      3 C          63.4186   88.9592   12.4889 C.3     1  UNL1        0.1149
      4 N          63.6396   90.3552   11.9862 N.am    1  UNL1       -0.2747
      5 C          64.1392   91.4180   12.9193 C.2     1  UNL1        0.2442
      6 O          64.3602   92.8138   12.4166 O.2     1  UNL1       -0.2731
      7 C          63.3610   90.6881   10.5504 C.3     1  UNL1        0.1149
      8 C          62.8614   89.6252    9.6173 C.3     1  UNL1        0.1123
      9 C          60.7823   87.2936    8.5638 C.ar    1  UNL1        0.0111
     10 C          60.2827   86.2307    7.6307 C.ar    1  UNL1        0.0282
     11 C          61.1416   85.0406    7.3208 C.ar    1  UNL1        0.1400
     12 F          60.6420   83.9777    6.3877 F       1  UNL1       -0.2042
     13 C          62.5001   84.9135    7.9440 C.ar    1  UNL1        0.0309
     14 C          62.9996   85.9764    8.8770 C.ar    1  UNL1        0.0166
     15 C          62.1407   87.1664    9.1869 C.ar    1  UNL1        0.0456
     16 C          59.9234   88.4836    8.8737 C.3     1  UNL1        0.0953
     17 N          59.8710   89.6397    7.9194 N.am    1  UNL1       -0.3011
     18 C          59.0424   89.5461    6.6725 C.2     1  UNL1        0.2367
     19 O          58.2661   88.2964    6.3800 O.2     1  UNL1       -0.2737
     20 H          60.3805   90.4599    8.1114 H       1  UNL1        0.1497
     21 C          58.9901   90.7022    5.7182 C.3     1  UNL1        0.1284
     22 C          57.6657   91.2492    5.2747 C.3     1  UNL1        0.0267
     23 N          60.2621   91.3113    5.2075 N.3     1  UNL1       -0.3150
     24 H          61.0600   90.8189    5.6091 H       1  UNL1        0.1192
     25 H          60.2996   92.2948    5.4752 H       1  UNL1        0.1192
     26 C          59.1168   88.5176   10.1379 C.3     1  UNL1        0.0242
     27 C          59.9155   90.8515   10.9535 C.3     1  UNL1        0.0001
     28 C          59.5106   89.4389   11.2543 C.3     1  UNL1        0.0020
     29 C          59.4996   88.9474   12.6714 C.3     1  UNL1        0.0001
     30 C          64.4178   91.0850   14.3551 C.3     1  UNL1        0.1564
     31 N          65.7032   91.5246   14.9911 N.am    1  UNL1       -0.2727
     32 C          67.0834   91.2449   14.4746 C.3     1  UNL1        0.0943
     33 C          68.0672   91.8686   15.4197 C.3     1  UNL1        0.0311
     34 C          67.2950   92.5337   16.5203 C.3     1  UNL1        0.0870
     35 C          65.8339   92.3211   16.2554 C.2     1  UNL1        0.2260
     36 O          64.7024   92.8179   17.1056 O.2     1  UNL1       -0.2749
     37 C          63.4111   90.3124   15.1548 C.3     1  UNL1        0.0564
     38 C          63.6320   88.8548   15.4313 C.ar    1  UNL1       -0.0094
     39 C          64.5040   88.0423   14.5205 C.ar    1  UNL1       -0.0025
     40 C          64.7248   86.5846   14.7970 C.ar    1  UNL1        0.0111
     41 C          64.0737   85.9395   15.9845 C.ar    1  UNL1        0.0585
     42 CL         64.2946   84.4818   16.2610 Cl      1  UNL1       -0.0822
     43 C          63.2018   86.7520   16.8952 C.ar    1  UNL1        0.0225
     44 C          62.9809   88.2096   16.6187 C.ar    1  UNL1        0.0546
     45 CL         62.4994   88.4725   17.1970 Cl      1  UNL1       -0.0825
@<TRIPOS>BOND
     1    27    28    1
     2    28    29    1
     3    28    26    1
     4    16    26    1
     5    16    17    1
     6    17    18   am
     7    18    19    2
     8    18    21    1
     9    21    22    1
    10    21    23    1
    11    16     9    1
    12     9    10   ar
    13    10    11   ar
    14    11    12    1
    15    11    13   ar
    16    13    14   ar
    17    14    15   ar
    18    15     1    1
    19     1     2    1
    20     2     3    1
    21     3     4    1
    22     4     5   am
    23     5     6    2
    24     5    30    1
    25    30    37    1
    26    37    38    1
    27    38    39   ar
    28    39    40   ar
    29    40    41   ar
    30    41    42    1
    31    41    43   ar
    32    43    44   ar
    33    44    45    1
    34    30    31    1
    35    31    32    1
    36    32    33    1
    37    33    34    1
    38    34    35    1
    39    35    36    2
    40     4     7    1
    41     7     8    1
    42    15     9   ar
    43     8     1    1
    44    44    38   ar
    45    35    31   am
    46    17    20    1
    47    23    24    1
    48    23    25    1
@<TRIPOS>MOLECULE
*****
 45 48 0 0 0
SMALL
GASTEIGER

@<TRIPOS>ATOM
      1 N          64.2538   91.0244   12.6976 N.pl3   1  UNL1       -0.3043
      2 C          64.2870   89.5269   12.7770 C.3     1  UNL1        0.1123
      3 C          63.3645   88.7099   11.9218 C.3     1  UNL1        0.1149
      4 N          62.4086   89.3904   10.9872 N.am    1  UNL1       -0.2747
      5 C          61.4861   88.5734   10.1320 C.2     1  UNL1        0.2442
      6 O          60.5304   89.2539    9.1975 O.2     1  UNL1       -0.2731
      7 C          62.3754   90.8879   10.9078 C.3     1  UNL1        0.1149
      8 C          63.2980   91.7050   11.7631 C.3     1  UNL1        0.1123
      9 C          65.9970   92.9359   12.9375 C.ar    1  UNL1        0.0111
     10 C          66.9195   93.7529   13.7927 C.ar    1  UNL1        0.0282
     11 C          67.0214   93.4754   15.2633 C.ar    1  UNL1        0.1400
     12 F          67.9440   94.2924   16.1186 F       1  UNL1       -0.2042
     13 C          66.2008   92.3809   15.8787 C.ar    1  UNL1        0.0309
     14 C          65.2782   91.5640   15.0234 C.ar    1  UNL1        0.0166
     15 C          65.1764   91.8415   13.5529 C.ar    1  UNL1        0.0456
     16 C          65.8951   93.2134   11.4669 C.3     1  UNL1        0.0953
     17 N          66.5733   92.3060   10.4837 N.am    1  UNL1       -0.3011
     18 C          67.8282   92.7520    9.7935 C.2     1  UNL1        0.2367
     19 O          68.4049   94.1053   10.0865 O.2     1  UNL1       -0.2737
     20 H          66.1948   91.4178   10.2914 H       1  UNL1        0.1497
     21 C          68.5064   91.8445    8.8103 C.3     1  UNL1        0.1284
     22 C          69.8154   92.2465    8.1980 C.3     1  UNL1        0.0267
     23 N          67.8755   90.5352    8.4393 N.3     1  UNL1       -0.3150
     24 H          66.9969   90.4255    8.9458 H       1  UNL1        0.1192
     25 H          68.5066   89.7722    8.6842 H       1  UNL1        0.1192
     26 C          65.1151   94.3982   10.9795 C.3     1  UNL1        0.0242
     27 C          66.1107   96.0836    9.2712 C.3     1  UNL1        0.0001
     28 C          65.8181   95.6911   10.6890 C.3     1  UNL1        0.0020
     29 C          66.2285   96.5914   11.8164 C.3     1  UNL1        0.0001
     30 C          61.5193   87.0759   10.2114 C.3     1  UNL1        0.1564
     31 N          61.6862   86.2621    8.9624 N.am    1  UNL1       -0.2727
     32 C          62.9525   85.6030    8.5021 C.3     1  UNL1        0.0943
     33 C          62.6649   84.8981    7.2096 C.3     1  UNL1        0.0311
     34 C          61.2208   85.1217    6.8711 C.3     1  UNL1        0.0870
     35 C          60.6159   85.9647    7.9544 C.2     1  UNL1        0.2260
     36 O          59.1910   86.4288    8.0184 O.2     1  UNL1       -0.2749
     37 C          61.3858   86.3920   11.5397 C.3     1  UNL1        0.0564
     38 C          62.2452   85.2057   11.8624 C.ar    1  UNL1       -0.0094
     39 C          62.0691   83.9236   11.1039 C.ar    1  UNL1       -0.0025
     40 C          62.9285   82.7373   11.4266 C.ar    1  UNL1        0.0111
     41 C          63.9640   82.8332   12.5077 C.ar    1  UNL1        0.0585
     42 CL         64.8234   81.6469   12.8303 Cl      1  UNL1       -0.0822
     43 C          64.1400   84.1153   13.2660 C.ar    1  UNL1        0.0225
     44 C          63.2806   85.3016   12.9434 C.ar    1  UNL1        0.0546
     45 CL         63.5121   85.8818   13.4387 Cl      1  UNL1       -0.0825
@<TRIPOS>BOND
     1    27    28    1
     2    28    29    1
     3    28    26    1
     4    16    26    1
     5    16    17    1
     6    17    18   am
     7    18    19    2
     8    18    21    1
     9    21    22    1
    10    21    23    1
    11    16     9    1
    12     9    10   ar
    13    10    11   ar
    14    11    12    1
    15    11    13   ar
    16    13    14   ar
    17    14    15   ar
    18    15     1    1
    19     1     2    1
    20     2     3    1
    21     3     4    1
    22     4     5   am
    23     5     6    2
    24     5    30    1
    25    30    37    1
    26    37    38    1
    27    38    39   ar
    28    39    40   ar
    29    40    41   ar
    30    41    42    1
    31    41    43   ar
    32    43    44   ar
    33    44    45    1
    34    30    31    1
    35    31    32    1
    36    32    33    1
    37    33    34    1
    38    34    35    1
    39    35    36    2
    40     4     7    1
    41     7     8    1
    42    15     9   ar
    43     8     1    1
    44    44    38   ar
    45    35    31   am
    46    17    20    1
    47    23    24    1
    48    23    25    1
@<TRIPOS>MOLECULE
*****
 45 48 0 0 0
SMALL
GASTEIGER

@<TRIPOS>ATOM
      1 N          63.2111   86.5292   13.4281 N.pl3   1  UNL1       -0.3043
      2 C          64.2395   87.2219   14.2722 C.3     1  UNL1        0.1123
      3 C          64.6286   88.6383   13.9686 C.3     1  UNL1        0.1149
      4 N          63.9893   89.3621   12.8207 N.am    1  UNL1       -0.2747
      5 C          64.3785   90.7785   12.5171 C.2     1  UNL1        0.2442
      6 O          63.7392   91.5023   11.3692 O.2     1  UNL1       -0.2731
      7 C          62.9610   88.6694   11.9765 C.3     1  UNL1        0.1149
      8 C          62.5719   87.2529   12.2803 C.3     1  UNL1        0.1123
      9 C          62.4237   84.1892   12.6189 C.ar    1  UNL1        0.0111
     10 C          62.0346   82.7728   12.9226 C.ar    1  UNL1        0.0282
     11 C          62.0439   82.2798   14.3393 C.ar    1  UNL1        0.1400
     12 F          61.6548   80.8633   14.6430 F       1  UNL1       -0.2042
     13 C          62.4422   83.2032   15.4522 C.ar    1  UNL1        0.0309
     14 C          62.8313   84.6196   15.1484 C.ar    1  UNL1        0.0166
     15 C          62.8220   85.1126   13.7318 C.ar    1  UNL1        0.0456
     16 C          62.4144   84.6822   11.2023 C.3     1  UNL1        0.0953
     17 N          61.3422   85.6255   10.7434 N.am    1  UNL1       -0.3011
     18 C          61.2964   86.0695    9.3114 C.2     1  UNL1        0.2367
     19 O          62.3229   85.5704    8.3382 O.2     1  UNL1       -0.2737
     20 H          60.6684   85.9531   11.3821 H       1  UNL1        0.1497
     21 C          60.2241   87.0128    8.8525 C.3     1  UNL1        0.1284
     22 C          60.3121   88.4710    9.1930 C.3     1  UNL1        0.0267
     23 N          59.0640   86.4979    8.0533 N.3     1  UNL1       -0.3150
     24 H          59.1654   85.4923    7.9159 H       1  UNL1        0.1192
     25 H          59.0420   86.9644    7.1465 H       1  UNL1        0.1192
     26 C          63.4773   84.2320   10.2445 C.3     1  UNL1        0.0242
     27 C          65.2406   82.9092   11.6197 C.3     1  UNL1        0.0001
     28 C          64.2359   82.9649   10.5073 C.3     1  UNL1        0.0020
     29 C          63.9896   81.7534    9.6578 C.3     1  UNL1        0.0001
     30 C          65.4068   91.4712   13.3612 C.3     1  UNL1        0.1564
     31 N          65.1161   91.7714   14.8018 N.am    1  UNL1       -0.2727
     32 C          63.9448   91.2635   15.5893 C.3     1  UNL1        0.0943
     33 C          64.0503   91.8104   16.9820 C.3     1  UNL1        0.0311
     34 C          65.2869   92.6563   17.0553 C.3     1  UNL1        0.0870
     35 C          65.9455   92.6322   15.7078 C.2     1  UNL1        0.2260
     36 O          67.2114   93.3440   15.3324 O.2     1  UNL1       -0.2749
     37 C          66.7260   91.8638   12.7648 C.3     1  UNL1        0.0564
     38 C          66.7876   92.9436   11.7255 C.ar    1  UNL1       -0.0094
     39 C          66.2066   94.2962   12.0139 C.ar    1  UNL1       -0.0025
     40 C          66.2682   95.3760   10.9746 C.ar    1  UNL1        0.0111
     41 C          66.9108   95.1033    9.6469 C.ar    1  UNL1        0.0585
     42 CL         66.9724   96.1831    8.6076 Cl      1  UNL1       -0.0822
     43 C          67.4917   93.7508    9.3585 C.ar    1  UNL1        0.0225
     44 C          67.4301   92.6709   10.3978 C.ar    1  UNL1        0.0546
     45 CL         67.7820   92.0334   10.0734 Cl      1  UNL1       -0.0825
@<TRIPOS>BOND
     1    27    28    1
     2    28    29    1
     3    28    26    1
     4    16    26    1
     5    16    17    1
     6    17    18   am
     7    18    19    2
     8    18    21    1
     9    21    22    1
    10    21    23    1
    11    16     9    1
    12     9    10   ar
    13    10    11   ar
    14    11    12    1
    15    11    13   ar
    16    13    14   ar
    17    14    15   ar
    18    15     1    1
    19     1     2    1
    20     2     3    1
    21     3     4    1
    22     4     5   am
    23     5     6    2
    24     5    30    1
    25    30    37    1
    26    37    38    1
    27    38    39   ar
    28    39    40   ar
    29    40    41   ar
    30    41    42    1
    31    41    43   ar
    32    43    44   ar
    33    44    45    1
    34    30    31    1
    35    31    32    1
    36    32    33    1
    37    33    34    1
    38    34    35    1
    39    35    36    2
    40     4     7    1
    41     7     8    1
    42    15     9   ar
    43     8     1    1
    44    44    38   ar
    45    35    31   am
    46    17    20    1
    47    23    24    1
    48    23    25    1
