@<TRIPOS>MOLECULE
*****
 22 25 0 0 0
SMALL
GASTEIGER

@<TRIPOS>ATOM
      1 O          63.8926   91.6484   15.6747 O.2     1  UNL1       -0.2448
      2 C          64.8088   90.7975   14.8464 C.2     1  UNL1        0.3428
      3 C          64.2525   89.6624   14.0388 C.2     1  UNL1        0.0959
      4 C          64.2690   88.2134   14.4263 C.2     1  UNL1        0.1049
      5 N          63.6087   87.4326   13.3290 N.2     1  UNL1       -0.2464
      6 C          63.1840   88.3990   12.2632 C.2     1  UNL1        0.0782
      7 C          62.4863   88.2022   10.9501 C.3     1  UNL1        0.1416
      8 CL         62.0884   86.8241   10.5113 Cl      1  UNL1       -0.1037
      9 C          62.1866   89.3834   10.0756 C.2     1  UNL1       -0.0043
     10 C          62.5845   90.7615   10.5143 C.2     1  UNL1       -0.0029
     11 C          63.2821   90.9584   11.8275 C.2     1  UNL1        0.0012
     12 C          63.5818   89.7771   12.7020 C.2     1  UNL1        0.0228
     13 O          66.2816   91.0816   14.8255 O.3     1  UNL1       -0.4454
     14 C          66.7875   92.3777   14.2651 C.3     1  UNL1        0.2087
     15 C          66.8129   92.5939   12.7810 C.3     1  UNL1        0.0445
     16 C          67.8600   91.9223   11.9429 C.3     1  UNL1        0.0210
     17 C          67.8853   92.1386   10.4588 C.3     1  UNL1        0.0722
     18 N          66.8635   93.0265    9.8127 N.3     1  UNL1       -0.2727
     19 C          65.8163   93.6982   10.6507 C.3     1  UNL1        0.0722
     20 C          65.7910   93.4819   12.1349 C.3     1  UNL1        0.0210
     21 C          66.8095   92.9383   10.6296 C.3     1  UNL1        0.0722
     22 C          66.7865   92.7428   11.9715 C.3     1  UNL1        0.0210
@<TRIPOS>BOND
     1     1     2    2
     2     2    13    1
     3    13    14    1
     4    14    15    1
     5    15    16    1
     6    16    17    1
     7    17    18    1
     8    18    19    1
     9    19    20    1
    10    18    21    1
    11    21    22    1
    12     2     3    1
    13     3     4    2
    14     4     5    1
    15     5     6    2
    16     6     7    1
    17     7     8    1
    18     7     9    1
    19     9    10    2
    20    10    11    1
    21    11    12    2
    22    20    15    1
    23    12     3    1
    24    22    15    1
    25    12     6    1
@<TRIPOS>MOLECULE
*****
 22 25 0 0 0
SMALL
GASTEIGER

@<TRIPOS>ATOM
      1 O          62.0912   82.1201   14.3872 O.2     1  UNL1       -0.2448
      2 C          63.2403   82.9347   13.8715 C.2     1  UNL1        0.3428
      3 C          63.3789   83.1886   12.3997 C.2     1  UNL1        0.0959
      4 C          64.0952   82.3104   11.4171 C.2     1  UNL1        0.1049
      5 N          63.9845   82.9444   10.0622 N.2     1  UNL1       -0.2464
      6 C          63.1997   84.2145   10.2074 C.2     1  UNL1        0.0782
      7 C          62.7776   85.2530    9.2108 C.3     1  UNL1        0.1416
      8 CL         63.1519   85.1021    7.7661 Cl      1  UNL1       -0.1037
      9 C          61.9811   86.4424    9.6589 C.2     1  UNL1       -0.0043
     10 C          61.6068   86.5934   11.1036 C.2     1  UNL1       -0.0029
     11 C          62.0290   85.5548   12.1002 C.2     1  UNL1        0.0012
     12 C          62.8254   84.3654   11.6521 C.2     1  UNL1        0.0228
     13 O          64.2509   83.4954   14.8278 O.3     1  UNL1       -0.4454
     14 C          64.8457   84.8502   14.5813 C.3     1  UNL1        0.2087
     15 C          64.2646   86.0581   15.2546 C.3     1  UNL1        0.0445
     16 C          63.5123   85.9090   16.5437 C.3     1  UNL1        0.0210
     17 C          62.9313   87.1169   17.2170 C.3     1  UNL1        0.0722
     18 N          63.1026   88.4740   16.6012 N.3     1  UNL1       -0.2727
     19 C          63.8549   88.6231   15.3121 C.3     1  UNL1        0.0722
     20 C          64.4359   87.4151   14.6388 C.3     1  UNL1        0.0210
     21 C          63.4388   87.8414   16.1954 C.3     1  UNL1        0.0722
     22 C          63.9642   86.7492   15.5865 C.3     1  UNL1        0.0210
@<TRIPOS>BOND
     1     1     2    2
     2     2    13    1
     3    13    14    1
     4    14    15    1
     5    15    16    1
     6    16    17    1
     7    17    18    1
     8    18    19    1
     9    19    20    1
    10    18    21    1
    11    21    22    1
    12     2     3    1
    13     3     4    2
    14     4     5    1
    15     5     6    2
    16     6     7    1
    17     7     8    1
    18     7     9    1
    19     9    10    2
    20    10    11    1
    21    11    12    2
    22    20    15    1
    23    12     3    1
    24    22    15    1
    25    12     6    1
@<TRIPOS>MOLECULE
*****
 22 25 0 0 0
SMALL
GASTEIGER

@<TRIPOS>ATOM
      1 O          60.3480   88.4998   11.7923 O.2     1  UNL1       -0.2448
      2 C          61.6663   88.4960   11.0769 C.2     1  UNL1        0.3428
      3 C          62.5604   89.6985   11.1454 C.2     1  UNL1        0.0959
      4 C          62.6910   90.7611   10.0947 C.2     1  UNL1        0.1049
      5 N          63.6921   91.7688   10.5765 N.2     1  UNL1       -0.2464
      6 C          64.1802   91.3291   11.9250 C.2     1  UNL1        0.0782
      7 C          65.1712   91.9285   12.8782 C.3     1  UNL1        0.1416
      8 CL         65.8706   93.2081   12.5266 Cl      1  UNL1       -0.1037
      9 C          65.4627   91.2484   14.1829 C.2     1  UNL1       -0.0043
     10 C          64.7633   89.9689   14.5345 C.2     1  UNL1       -0.0029
     11 C          63.7723   89.3695   13.5813 C.2     1  UNL1        0.0012
     12 C          63.4808   90.0496   12.2766 C.2     1  UNL1        0.0228
     13 O          62.0907   87.2896   10.2929 O.3     1  UNL1       -0.4454
     14 C          61.6271   85.9246   10.7075 C.3     1  UNL1        0.2087
     15 C          62.6299   84.8441   10.9849 C.3     1  UNL1        0.0445
     16 C          63.2974   84.1302    9.8470 C.3     1  UNL1        0.0210
     17 C          64.3002   83.0498   10.1244 C.3     1  UNL1        0.0722
     18 N          64.6356   82.6832   11.5398 N.3     1  UNL1       -0.2727
     19 C          63.9681   83.3971   12.6777 C.3     1  UNL1        0.0722
     20 C          62.9653   84.4776   12.4002 C.3     1  UNL1        0.0210
     21 C          64.0797   83.2819   11.4373 C.3     1  UNL1        0.0722
     22 C          63.1729   84.2589   11.1865 C.3     1  UNL1        0.0210
@<TRIPOS>BOND
     1     1     2    2
     2     2    13    1
     3    13    14    1
     4    14    15    1
     5    15    16    1
     6    16    17    1
     7    17    18    1
     8    18    19    1
     9    19    20    1
    10    18    21    1
    11    21    22    1
    12     2     3    1
    13     3     4    2
    14     4     5    1
    15     5     6    2
    16     6     7    1
    17     7     8    1
    18     7     9    1
    19     9    10    2
    20    10    11    1
    21    11    12    2
    22    20    15    1
    23    12     3    1
    24    22    15    1
    25    12     6    1
@<TRIPOS>MOLECULE
*****
 22 25 0 0 0
SMALL
GASTEIGER

@<TRIPOS>ATOM
      1 O          64.7901   92.0686   15.6671 O.2     1  UNL1       -0.2448
      2 C          65.2067   91.4741   14.3546 C.2     1  UNL1        0.3428
      3 C          64.5151   90.2498   13.8323 C.2     1  UNL1        0.0959
      4 C          64.4436   88.9176   14.5178 C.2     1  UNL1        0.1049
      5 N          63.6578   87.9873   13.6420 N.2     1  UNL1       -0.2464
      6 C          63.2436   88.7446   12.4153 C.2     1  UNL1        0.0782
      7 C          62.4524   88.3415   11.2063 C.3     1  UNL1        0.1416
      8 CL         61.9226   86.9431   11.0887 Cl      1  UNL1       -0.1037
      9 C          62.1911   89.3368   10.1150 C.2     1  UNL1       -0.0043
     10 C          62.7210   90.7352   10.2326 C.2     1  UNL1       -0.0029
     11 C          63.5121   91.1383   11.4416 C.2     1  UNL1        0.0012
     12 C          63.7734   90.1429   12.5329 C.2     1  UNL1        0.0228
     13 O          66.3152   92.1040   13.5641 O.3     1  UNL1       -0.4454
     14 C          66.0145   93.2213   12.6095 C.3     1  UNL1        0.2087
     15 C          66.7283   93.2946   11.2922 C.3     1  UNL1        0.0445
     16 C          66.6287   94.5340   10.4532 C.3     1  UNL1        0.0210
     17 C          67.3425   94.6073    9.1360 C.3     1  UNL1        0.0722
     18 N          68.1559   93.4412    8.6577 N.3     1  UNL1       -0.2727
     19 C          68.2554   92.2018    9.4967 C.3     1  UNL1        0.0722
     20 C          67.5416   92.1285   10.8140 C.3     1  UNL1        0.0210
     21 C          67.7825   93.3544    9.3864 C.3     1  UNL1        0.0722
     22 C          67.1371   93.2880   10.5775 C.3     1  UNL1        0.0210
@<TRIPOS>BOND
     1     1     2    2
     2     2    13    1
     3    13    14    1
     4    14    15    1
     5    15    16    1
     6    16    17    1
     7    17    18    1
     8    18    19    1
     9    19    20    1
    10    18    21    1
    11    21    22    1
    12     2     3    1
    13     3     4    2
    14     4     5    1
    15     5     6    2
    16     6     7    1
    17     7     8    1
    18     7     9    1
    19     9    10    2
    20    10    11    1
    21    11    12    2
    22    20    15    1
    23    12     3    1
    24    22    15    1
    25    12     6    1
@<TRIPOS>MOLECULE
*****
 22 25 0 0 0
SMALL
GASTEIGER

@<TRIPOS>ATOM
      1 O          63.9574   86.8922   13.6088 O.2     1  UNL1       -0.2448
      2 C          62.8827   86.0809   12.9481 C.2     1  UNL1        0.3428
      3 C          62.6984   84.6385   13.3162 C.2     1  UNL1        0.0959
      4 C          62.2487   84.1194   14.6497 C.2     1  UNL1        0.1049
      5 N          62.2038   82.6221   14.5730 N.2     1  UNL1       -0.2464
      6 C          62.6257   82.2158   13.1921 C.2     1  UNL1        0.0782
      7 C          62.7711   80.8720   12.5416 C.3     1  UNL1        0.1416
      8 CL         62.4654   79.6257   13.3184 Cl      1  UNL1       -0.1037
      9 C          63.2222   80.7745   11.1144 C.2     1  UNL1       -0.0043
     10 C          63.5279   82.0208   10.3376 C.2     1  UNL1       -0.0029
     11 C          63.3825   83.3645   10.9881 C.2     1  UNL1        0.0012
     12 C          62.9314   83.4620   12.4153 C.2     1  UNL1        0.0228
     13 O          61.9922   86.7121   11.9191 O.3     1  UNL1       -0.4454
     14 C          62.5345   87.0454   10.5608 C.3     1  UNL1        0.2087
     15 C          61.8908   86.4697    9.3344 C.3     1  UNL1        0.0445
     16 C          62.6854   85.5948    8.4107 C.3     1  UNL1        0.0210
     17 C          62.0416   85.0192    7.1843 C.3     1  UNL1        0.0722
     18 N          60.6032   85.3184    6.8815 N.3     1  UNL1       -0.2727
     19 C          59.8087   86.1932    7.8052 C.3     1  UNL1        0.0722
     20 C          60.4525   86.7689    9.0317 C.3     1  UNL1        0.0210
     21 C          60.9127   85.6566    7.5655 C.3     1  UNL1        0.0722
     22 C          61.4947   86.1771    8.6745 C.3     1  UNL1        0.0210
@<TRIPOS>BOND
     1     1     2    2
     2     2    13    1
     3    13    14    1
     4    14    15    1
     5    15    16    1
     6    16    17    1
     7    17    18    1
     8    18    19    1
     9    19    20    1
    10    18    21    1
    11    21    22    1
    12     2     3    1
    13     3     4    2
    14     4     5    1
    15     5     6    2
    16     6     7    1
    17     7     8    1
    18     7     9    1
    19     9    10    2
    20    10    11    1
    21    11    12    2
    22    20    15    1
    23    12     3    1
    24    22    15    1
    25    12     6    1
@<TRIPOS>MOLECULE
*****
 22 25 0 0 0
SMALL
GASTEIGER

@<TRIPOS>ATOM
      1 O          60.9827   90.1905   11.4355 O.2     1  UNL1       -0.2448
      2 C          62.3676   89.6751   11.6924 C.2     1  UNL1        0.3428
      3 C          63.3121   90.4597   12.5540 C.2     1  UNL1        0.0959
      4 C          63.4603   90.3336   14.0413 C.2     1  UNL1        0.1049
      5 N          64.5140   91.3042   14.4860 N.2     1  UNL1       -0.2464
      6 C          65.0171   92.0301   13.2735 C.2     1  UNL1        0.0782
      7 C          66.0555   93.0988   13.1025 C.3     1  UNL1        0.1416
      8 CL         66.7983   93.6208   14.2966 Cl      1  UNL1       -0.1037
      9 C          66.3511   93.6457   11.7374 C.2     1  UNL1       -0.0043
     10 C          65.6083   93.1238   10.5433 C.2     1  UNL1       -0.0029
     11 C          64.5699   92.0550   10.7144 C.2     1  UNL1        0.0012
     12 C          64.2742   91.5081   12.0795 C.2     1  UNL1        0.0228
     13 O          62.8082   88.3749   11.0877 O.3     1  UNL1       -0.4454
     14 C          61.8697   87.2052   11.0584 C.3     1  UNL1        0.2087
     15 C          61.2159   86.8003    9.7705 C.3     1  UNL1        0.0445
     16 C          61.9453   85.9132    8.8056 C.3     1  UNL1        0.0210
     17 C          61.2915   85.5083    7.5178 C.3     1  UNL1        0.0722
     18 N          59.9083   85.9906    7.1947 N.3     1  UNL1       -0.2727
     19 C          59.1790   86.8777    8.1596 C.3     1  UNL1        0.0722
     20 C          59.8328   87.2826    9.4476 C.3     1  UNL1        0.0210
     21 C          60.2256   86.2390    7.9128 C.3     1  UNL1        0.0722
     22 C          60.8166   86.6051    9.0774 C.3     1  UNL1        0.0210
@<TRIPOS>BOND
     1     1     2    2
     2     2    13    1
     3    13    14    1
     4    14    15    1
     5    15    16    1
     6    16    17    1
     7    17    18    1
     8    18    19    1
     9    19    20    1
    10    18    21    1
    11    21    22    1
    12     2     3    1
    13     3     4    2
    14     4     5    1
    15     5     6    2
    16     6     7    1
    17     7     8    1
    18     7     9    1
    19     9    10    2
    20    10    11    1
    21    11    12    2
    22    20    15    1
    23    12     3    1
    24    22    15    1
    25    12     6    1
@<TRIPOS>MOLECULE
*****
 22 25 0 0 0
SMALL
GASTEIGER

@<TRIPOS>ATOM
      1 O          60.3046   89.5212   12.6651 O.2     1  UNL1       -0.2448
      2 C          61.1150   89.6725   11.4121 C.2     1  UNL1        0.3428
      3 C          62.3940   90.4558   11.4361 C.2     1  UNL1        0.0959
      4 C          62.9802   91.2223   10.2877 C.2     1  UNL1        0.1049
      5 N          64.2598   91.8504   10.7546 N.2     1  UNL1       -0.2464
      6 C          64.4646   91.4720   12.1916 C.2     1  UNL1        0.0782
      7 C          65.5520   91.8010   13.1709 C.3     1  UNL1        0.1416
      8 CL         66.7052   92.6629   12.7497 Cl      1  UNL1       -0.1037
      9 C          65.4863   91.2681   14.5715 C.2     1  UNL1       -0.0043
     10 C          64.3332   90.4062   14.9927 C.2     1  UNL1       -0.0029
     11 C          63.2458   90.0772   14.0134 C.2     1  UNL1        0.0012
     12 C          63.3114   90.6101   12.6128 C.2     1  UNL1        0.0228
     13 O          60.6465   89.0404   10.1350 O.3     1  UNL1       -0.4454
     14 C          60.3041   87.5803   10.1023 C.3     1  UNL1        0.2087
     15 C          60.9950   86.6696    9.1312 C.3     1  UNL1        0.0445
     16 C          62.4190   86.2621    9.3681 C.3     1  UNL1        0.0210
     17 C          63.1099   85.3513    8.3969 C.3     1  UNL1        0.0722
     18 N          62.3768   84.8479    7.1889 N.3     1  UNL1       -0.2727
     19 C          60.9527   85.2554    6.9521 C.3     1  UNL1        0.0722
     20 C          60.2618   86.1662    7.9233 C.3     1  UNL1        0.0210
     21 C          61.9564   85.3451    7.6930 C.3     1  UNL1        0.0722
     22 C          61.3316   86.1686    8.5710 C.3     1  UNL1        0.0210
@<TRIPOS>BOND
     1     1     2    2
     2     2    13    1
     3    13    14    1
     4    14    15    1
     5    15    16    1
     6    16    17    1
     7    17    18    1
     8    18    19    1
     9    19    20    1
    10    18    21    1
    11    21    22    1
    12     2     3    1
    13     3     4    2
    14     4     5    1
    15     5     6    2
    16     6     7    1
    17     7     8    1
    18     7     9    1
    19     9    10    2
    20    10    11    1
    21    11    12    2
    22    20    15    1
    23    12     3    1
    24    22    15    1
    25    12     6    1
@<TRIPOS>MOLECULE
*****
 22 25 0 0 0
SMALL
GASTEIGER

@<TRIPOS>ATOM
      1 O          62.9727   86.8595   12.2798 O.2     1  UNL1       -0.2448
      2 C          63.5577   86.1654   13.4738 C.2     1  UNL1        0.3428
      3 C          63.2181   84.7304   13.7482 C.2     1  UNL1        0.0959
      4 C          62.7810   84.1644   15.0668 C.2     1  UNL1        0.1049
      5 N          62.5488   82.6936   14.8857 N.2     1  UNL1       -0.2464
      6 C          62.8424   82.3505   13.4553 C.2     1  UNL1        0.0782
      7 C          62.7865   81.0546   12.7021 C.3     1  UNL1        0.1416
      8 CL         62.3728   79.7958   13.4051 Cl      1  UNL1       -0.1037
      9 C          63.1443   81.0175   11.2459 C.2     1  UNL1       -0.0043
     10 C          63.5580   82.2763   10.5429 C.2     1  UNL1       -0.0029
     11 C          63.6139   83.5722   11.2961 C.2     1  UNL1        0.0012
     12 C          63.2561   83.6094   12.7523 C.2     1  UNL1        0.0228
     13 O          64.4825   86.9064   14.3935 O.3     1  UNL1       -0.4454
     14 C          64.0520   88.2090   15.0001 C.3     1  UNL1        0.2087
     15 C          64.2940   89.4945   14.2659 C.3     1  UNL1        0.0445
     16 C          63.4317   89.8634   13.0953 C.3     1  UNL1        0.0210
     17 C          63.6738   91.1489   12.3612 C.3     1  UNL1        0.0722
     18 N          64.7781   92.0655   12.7976 N.3     1  UNL1       -0.2727
     19 C          65.6404   91.6965   13.9682 C.3     1  UNL1        0.0722
     20 C          65.3984   90.4109   14.7024 C.3     1  UNL1        0.0210
     21 C          64.6837   91.3717   13.2310 C.3     1  UNL1        0.0722
     22 C          64.4649   90.2094   13.8949 C.3     1  UNL1        0.0210
@<TRIPOS>BOND
     1     1     2    2
     2     2    13    1
     3    13    14    1
     4    14    15    1
     5    15    16    1
     6    16    17    1
     7    17    18    1
     8    18    19    1
     9    19    20    1
    10    18    21    1
    11    21    22    1
    12     2     3    1
    13     3     4    2
    14     4     5    1
    15     5     6    2
    16     6     7    1
    17     7     8    1
    18     7     9    1
    19     9    10    2
    20    10    11    1
    21    11    12    2
    22    20    15    1
    23    12     3    1
    24    22    15    1
    25    12     6    1
@<TRIPOS>MOLECULE
*****
 22 25 0 0 0
SMALL
GASTEIGER

@<TRIPOS>ATOM
      1 O          59.7302   88.2262   11.7661 O.2     1  UNL1       -0.2448
      2 C          60.1803   88.6469   10.3986 C.2     1  UNL1        0.3428
      3 C          60.0862   87.6870    9.2497 C.2     1  UNL1        0.0959
      4 C          58.9070   87.5150    8.3388 C.2     1  UNL1        0.1049
      5 N          59.2469   86.4524    7.3362 N.2     1  UNL1       -0.2464
      6 C          60.6362   85.9676    7.6275 C.2     1  UNL1        0.0782
      7 C          61.4959   84.9299    6.9686 C.3     1  UNL1        0.1416
      8 CL         60.9772   84.1669    5.7860 Cl      1  UNL1       -0.1037
      9 C          62.8744   84.6553    7.4924 C.2     1  UNL1       -0.0043
     10 C          63.3931   85.4184    8.6751 C.2     1  UNL1       -0.0029
     11 C          62.5334   86.4561    9.3339 C.2     1  UNL1        0.0012
     12 C          61.1550   86.7307    8.8101 C.2     1  UNL1        0.0228
     13 O          60.7245   90.0275   10.1798 O.3     1  UNL1       -0.4454
     14 C          62.1949   90.2282    9.9610 C.3     1  UNL1        0.2087
     15 C          63.0617   90.7094   11.0866 C.3     1  UNL1        0.0445
     16 C          64.1395   91.7192   10.8244 C.3     1  UNL1        0.0210
     17 C          65.0062   92.2004   11.9501 C.3     1  UNL1        0.0722
     18 N          64.7953   91.6719   13.3380 N.3     1  UNL1       -0.2727
     19 C          63.7175   90.6622   13.6002 C.3     1  UNL1        0.0722
     20 C          62.8506   90.1809   12.4745 C.3     1  UNL1        0.0210
     21 C          64.2953   91.3784   12.7532 C.3     1  UNL1        0.0722
     22 C          63.5115   90.9432   11.7355 C.3     1  UNL1        0.0210
@<TRIPOS>BOND
     1     1     2    2
     2     2    13    1
     3    13    14    1
     4    14    15    1
     5    15    16    1
     6    16    17    1
     7    17    18    1
     8    18    19    1
     9    19    20    1
    10    18    21    1
    11    21    22    1
    12     2     3    1
    13     3     4    2
    14     4     5    1
    15     5     6    2
    16     6     7    1
    17     7     8    1
    18     7     9    1
    19     9    10    2
    20    10    11    1
    21    11    12    2
    22    20    15    1
    23    12     3    1
    24    22    15    1
    25    12     6    1
