@<TRIPOS>MOLECULE
*****
 44 47 0 0 0
SMALL
GASTEIGER

@<TRIPOS>ATOM
      1 N          62.2986   89.4808   11.2238 N.pl3   1  UNL1       -0.3043
      2 C          61.9085   89.7215   12.6520 C.3     1  UNL1        0.1123
      3 C          62.8509   90.4326   13.5773 C.3     1  UNL1        0.1149
      4 N          64.1836   90.9030   13.0743 N.am    1  UNL1       -0.2747
      5 C          65.1260   91.6140   13.9996 C.2     1  UNL1        0.2442
      6 O          64.7359   91.8547   15.4278 O.2     1  UNL1       -0.2731
      7 C          64.5737   90.6623   11.6461 C.3     1  UNL1        0.1149
      8 C          63.6312   89.9512   10.7208 C.3     1  UNL1        0.1123
      9 C          61.3236   87.2704   10.2679 C.ar    1  UNL1        0.0085
     10 C          60.3811   86.5594    9.3427 C.ar    1  UNL1       -0.0057
     11 C          59.4711   87.3477    8.4480 C.ar    1  UNL1       -0.0220
     12 C          58.5286   86.6366    7.5227 C.3     1  UNL1        0.0310
     13 C          59.5036   88.8470    8.4785 C.ar    1  UNL1       -0.0030
     14 C          60.4461   89.5580    9.4038 C.ar    1  UNL1        0.0139
     15 C          61.3561   88.7697   10.2985 C.ar    1  UNL1        0.0454
     16 C          62.2336   86.4821   11.1626 C.3     1  UNL1        0.0953
     17 C          63.4377   86.4644   13.4647 C.2     1  UNL1        0.2388
     18 O          63.0064   85.0439   13.6794 O.2     1  UNL1       -0.2736
     19 N          63.0513   87.1835   12.2063 N.am    1  UNL1       -0.3010
     20 H          63.3344   88.1159   12.0654 H       1  UNL1        0.1497
     21 C          64.2554   87.1659   14.5085 C.3     1  UNL1        0.1549
     22 C          63.1774   86.5325   16.7859 C.3     1  UNL1        0.0862
     23 N          63.6235   87.5764   15.8055 N.3     1  UNL1       -0.2887
     24 H          64.3013   88.1648   16.2900 H       1  UNL1        0.1237
     25 C          62.3259   84.9924   11.0136 C.3     1  UNL1        0.0242
     26 C          63.3374   84.3931   10.0820 C.3     1  UNL1        0.0020
     27 C          64.3248   83.3867   10.5939 C.3     1  UNL1        0.0001
     28 C          63.3615   84.8003    8.6385 C.3     1  UNL1        0.0001
     29 C          66.4586   92.0844   13.4966 C.3     1  UNL1        0.1564
     30 N          67.4528   92.6786   14.4497 N.am    1  UNL1       -0.2727
     31 C          67.1293   93.4941   15.6664 C.3     1  UNL1        0.0943
     32 C          68.4217   93.8812   16.3221 C.3     1  UNL1        0.0311
     33 C          69.5439   93.3050   15.5106 C.3     1  UNL1        0.0870
     34 C          68.9452   92.5617   14.3534 C.2     1  UNL1        0.2260
     35 O          69.7053   91.8301   13.2872 O.2     1  UNL1       -0.2749
     36 C          66.7969   91.9605   12.0405 C.3     1  UNL1        0.0564
     37 C          66.8400   93.1840   11.1738 C.ar    1  UNL1       -0.0094
     38 C          66.1541   94.4421   11.6177 C.ar    1  UNL1       -0.0025
     39 C          66.1971   95.6656   10.7510 C.ar    1  UNL1        0.0111
     40 C          66.9261   95.6311    9.4404 C.ar    1  UNL1        0.0585
     41 CL         66.9691   96.8546    8.5738 Cl      1  UNL1       -0.0822
     42 C          67.6119   94.3731    8.9966 C.ar    1  UNL1        0.0225
     43 C          67.5689   93.1496    9.8633 C.ar    1  UNL1        0.0546
     44 CL         68.2547   91.8916    9.4194 Cl      1  UNL1       -0.0825
@<TRIPOS>BOND
     1    22    23    1
     2    23    21    1
     3    21    17    1
     4    17    18    2
     5    17    19   am
     6    19    16    1
     7    16    25    1
     8    25    26    1
     9    26    27    1
    10    26    28    1
    11    16     9    1
    12     9    10   ar
    13    10    11   ar
    14    11    12    1
    15    11    13   ar
    16    13    14   ar
    17    14    15   ar
    18    15     1    1
    19     1     2    1
    20     2     3    1
    21     3     4    1
    22     4     5   am
    23     5     6    2
    24     5    29    1
    25    29    36    1
    26    36    37    1
    27    37    38   ar
    28    38    39   ar
    29    39    40   ar
    30    40    41    1
    31    40    42   ar
    32    42    43   ar
    33    43    44    1
    34    29    30    1
    35    30    31    1
    36    31    32    1
    37    32    33    1
    38    33    34    1
    39    34    35    2
    40     4     7    1
    41     7     8    1
    42    15     9   ar
    43     8     1    1
    44    43    37   ar
    45    34    30   am
    46    23    24    1
    47    19    20    1
@<TRIPOS>MOLECULE
*****
 44 47 0 0 0
SMALL
GASTEIGER

@<TRIPOS>ATOM
      1 N          63.2922   85.7201   14.5507 N.pl3   1  UNL1       -0.3043
      2 C          62.8074   86.2140   15.8815 C.3     1  UNL1        0.1123
      3 C          63.0252   87.6449   16.2751 C.3     1  UNL1        0.1149
      4 N          63.7280   88.5820   15.3380 N.am    1  UNL1       -0.2747
      5 C          63.9459   90.0129   15.7316 C.2     1  UNL1        0.2442
      6 O          63.4610   90.5068   17.0624 O.2     1  UNL1       -0.2731
      7 C          64.2129   88.0880   14.0072 C.3     1  UNL1        0.1149
      8 C          63.9950   86.6570   13.6136 C.3     1  UNL1        0.1123
      9 C          62.6479   83.9524   12.7590 C.ar    1  UNL1        0.0085
     10 C          62.4300   82.5215   12.3655 C.ar    1  UNL1       -0.0057
     11 C          62.6386   81.4272   13.3700 C.ar    1  UNL1       -0.0220
     12 C          62.4206   79.9962   12.9764 C.3     1  UNL1        0.0310
     13 C          63.0650   81.7639   14.7681 C.ar    1  UNL1       -0.0030
     14 C          63.2829   83.1948   15.1617 C.ar    1  UNL1        0.0139
     15 C          63.0743   84.2891   14.1571 C.ar    1  UNL1        0.0454
     16 C          62.4394   85.0466   11.7544 C.3     1  UNL1        0.0953
     17 C          61.1777   87.2157   11.0810 C.2     1  UNL1        0.2388
     18 O          62.3430   87.6299   10.2321 O.2     1  UNL1       -0.2736
     19 N          61.2260   85.9240   11.8422 N.am    1  UNL1       -0.3010
     20 H          60.4612   85.6522   12.3993 H       1  UNL1        0.1497
     21 C          59.9642   88.0931   11.1687 C.3     1  UNL1        0.1549
     22 C          59.3037   90.5725   11.5762 C.3     1  UNL1        0.0862
     23 N          59.9851   89.3174   12.0350 N.3     1  UNL1       -0.2887
     24 H          59.5560   89.0572   12.9230 H       1  UNL1        0.1237
     25 C          63.4443   85.2635   10.6622 C.3     1  UNL1        0.0242
     26 C          63.4890   84.3308    9.4882 C.3     1  UNL1        0.0020
     27 C          64.1210   82.9778    9.6288 C.3     1  UNL1        0.0001
     28 C          62.9017   84.7513    8.1735 C.3     1  UNL1        0.0001
     29 C          64.6486   90.9498   14.7945 C.3     1  UNL1        0.1564
     30 N          65.9542   91.5710   15.1941 N.am    1  UNL1       -0.2727
     31 C          67.2946   91.2705   14.5918 C.3     1  UNL1        0.0943
     32 C          68.3174   92.1156   15.2916 C.3     1  UNL1        0.0311
     33 C          67.6090   92.9384   16.3266 C.3     1  UNL1        0.0870
     34 C          66.1485   92.6019   16.2664 C.2     1  UNL1        0.2260
     35 O          65.0714   93.1925   17.1272 O.2     1  UNL1       -0.2749
     36 C          64.0459   91.2656   13.4577 C.3     1  UNL1        0.0564
     37 C          64.7684   92.1703   12.5041 C.ar    1  UNL1       -0.0094
     38 C          65.6970   93.2252   13.0287 C.ar    1  UNL1       -0.0025
     39 C          66.4195   94.1299   12.0750 C.ar    1  UNL1        0.0111
     40 C          66.2135   93.9798   10.5968 C.ar    1  UNL1        0.0585
     41 CL         66.9360   94.8845    9.6432 Cl      1  UNL1       -0.0822
     42 C          65.2850   92.9249   10.0723 C.ar    1  UNL1        0.0225
     43 C          64.5624   92.0202   11.0259 C.ar    1  UNL1        0.0546
     44 CL         63.6339   90.9654   10.5014 Cl      1  UNL1       -0.0825
@<TRIPOS>BOND
     1    22    23    1
     2    23    21    1
     3    21    17    1
     4    17    18    2
     5    17    19   am
     6    19    16    1
     7    16    25    1
     8    25    26    1
     9    26    27    1
    10    26    28    1
    11    16     9    1
    12     9    10   ar
    13    10    11   ar
    14    11    12    1
    15    11    13   ar
    16    13    14   ar
    17    14    15   ar
    18    15     1    1
    19     1     2    1
    20     2     3    1
    21     3     4    1
    22     4     5   am
    23     5     6    2
    24     5    29    1
    25    29    36    1
    26    36    37    1
    27    37    38   ar
    28    38    39   ar
    29    39    40   ar
    30    40    41    1
    31    40    42   ar
    32    42    43   ar
    33    43    44    1
    34    29    30    1
    35    30    31    1
    36    31    32    1
    37    32    33    1
    38    33    34    1
    39    34    35    2
    40     4     7    1
    41     7     8    1
    42    15     9   ar
    43     8     1    1
    44    43    37   ar
    45    34    30   am
    46    23    24    1
    47    19    20    1
@<TRIPOS>MOLECULE
*****
 44 47 0 0 0
SMALL
GASTEIGER

@<TRIPOS>ATOM
      1 N          62.4319   89.6114   11.5823 N.pl3   1  UNL1       -0.3043
      2 C          62.0384   89.6300   13.0296 C.3     1  UNL1        0.1123
      3 C          62.8107   90.4667   14.0060 C.3     1  UNL1        0.1149
      4 N          63.9765   91.2849   13.5351 N.am    1  UNL1       -0.2747
      5 C          64.7488   92.1216   14.5115 C.2     1  UNL1        0.2442
      6 O          64.3553   92.1402   15.9589 O.2     1  UNL1       -0.2731
      7 C          64.3699   91.2662   12.0878 C.3     1  UNL1        0.1149
      8 C          63.5976   90.4295   11.1113 C.3     1  UNL1        0.1123
      9 C          61.6629   87.2799   10.7319 C.ar    1  UNL1        0.0085
     10 C          60.8905   86.4433    9.7554 C.ar    1  UNL1       -0.0057
     11 C          60.1149   87.1012    8.6530 C.ar    1  UNL1       -0.0220
     12 C          59.3425   86.2645    7.6765 C.3     1  UNL1        0.0310
     13 C          60.1115   88.5959    8.5270 C.ar    1  UNL1       -0.0030
     14 C          60.8838   89.4326    9.5034 C.ar    1  UNL1        0.0139
     15 C          61.6595   88.7746   10.6058 C.ar    1  UNL1        0.0454
     16 C          62.4385   86.6220   11.8343 C.3     1  UNL1        0.0953
     17 C          62.7089   84.0527   11.5593 C.2     1  UNL1        0.2388
     18 O          63.6661   84.2747   10.4260 O.2     1  UNL1       -0.2736
     19 N          62.0951   85.2263   12.2634 N.am    1  UNL1       -0.3010
     20 H          61.4668   85.0806   13.0073 H       1  UNL1        0.1497
     21 C          62.3654   82.6570   11.9885 C.3     1  UNL1        0.1549
     22 C          62.0326   80.9043   13.8772 C.3     1  UNL1        0.0862
     23 N          62.2897   82.3183   13.4478 N.3     1  UNL1       -0.2887
     24 H          63.1807   82.5941   13.8607 H       1  UNL1        0.1237
     25 C          63.5576   87.3596   12.5076 C.3     1  UNL1        0.0242
     26 C          64.0964   86.8702   13.8192 C.3     1  UNL1        0.0020
     27 C          64.3851   87.8450   14.9221 C.3     1  UNL1        0.0001
     28 C          64.3464   85.4060   14.0279 C.3     1  UNL1        0.0001
     29 C          65.9145   92.9397   14.0406 C.3     1  UNL1        0.1564
     30 N          67.1760   92.9838   14.8509 N.am    1  UNL1       -0.2727
     31 C          67.9100   94.2220   15.2729 C.3     1  UNL1        0.0943
     32 C          69.1126   93.8009   16.0644 C.3     1  UNL1        0.0311
     33 C          69.1219   92.3024   16.1316 C.3     1  UNL1        0.0870
     34 C          67.9250   91.7974   15.3816 C.2     1  UNL1        0.2260
     35 O          67.5440   90.3587   15.1951 O.2     1  UNL1       -0.2749
     36 C          65.8187   93.7137   12.7592 C.3     1  UNL1        0.0564
     37 C          66.6739   93.3328   11.5872 C.ar    1  UNL1       -0.0094
     38 C          67.5456   92.1141   11.6595 C.ar    1  UNL1       -0.0025
     39 C          68.4008   91.7332   10.4875 C.ar    1  UNL1        0.0111
     40 C          68.3842   92.5709    9.2433 C.ar    1  UNL1        0.0585
     41 CL         69.2394   92.1900    8.0713 Cl      1  UNL1       -0.0822
     42 C          67.5125   93.7894    9.1711 C.ar    1  UNL1        0.0225
     43 C          66.6574   94.1704   10.3430 C.ar    1  UNL1        0.0546
     44 CL         65.7857   95.3889   10.2708 Cl      1  UNL1       -0.0825
@<TRIPOS>BOND
     1    22    23    1
     2    23    21    1
     3    21    17    1
     4    17    18    2
     5    17    19   am
     6    19    16    1
     7    16    25    1
     8    25    26    1
     9    26    27    1
    10    26    28    1
    11    16     9    1
    12     9    10   ar
    13    10    11   ar
    14    11    12    1
    15    11    13   ar
    16    13    14   ar
    17    14    15   ar
    18    15     1    1
    19     1     2    1
    20     2     3    1
    21     3     4    1
    22     4     5   am
    23     5     6    2
    24     5    29    1
    25    29    36    1
    26    36    37    1
    27    37    38   ar
    28    38    39   ar
    29    39    40   ar
    30    40    41    1
    31    40    42   ar
    32    42    43   ar
    33    43    44    1
    34    29    30    1
    35    30    31    1
    36    31    32    1
    37    32    33    1
    38    33    34    1
    39    34    35    2
    40     4     7    1
    41     7     8    1
    42    15     9   ar
    43     8     1    1
    44    43    37   ar
    45    34    30   am
    46    23    24    1
    47    19    20    1
@<TRIPOS>MOLECULE
*****
 44 47 0 0 0
SMALL
GASTEIGER

@<TRIPOS>ATOM
      1 N          62.7665   87.1745   10.5142 N.pl3   1  UNL1       -0.3043
      2 C          62.7594   86.5266   11.8671 C.3     1  UNL1        0.1123
      3 C          63.2153   87.2976   13.0703 C.3     1  UNL1        0.1149
      4 N          63.6784   88.7166   12.9206 N.am    1  UNL1       -0.2747
      5 C          64.1343   89.4876   14.1237 C.2     1  UNL1        0.2442
      6 O          64.1272   88.8397   15.4766 O.2     1  UNL1       -0.2731
      7 C          63.6855   89.3644   11.5677 C.3     1  UNL1        0.1149
      8 C          63.2295   88.5933   10.3645 C.3     1  UNL1        0.1123
      9 C          61.0546   86.8037    8.5954 C.ar    1  UNL1        0.0085
     10 C          60.5987   86.0326    7.3923 C.ar    1  UNL1       -0.0057
     11 C          61.3988   84.8612    6.9048 C.ar    1  UNL1       -0.0220
     12 C          60.9429   84.0901    5.7016 C.3     1  UNL1        0.0310
     13 C          62.6548   84.4609    7.6204 C.ar    1  UNL1       -0.0030
     14 C          63.1107   85.2320    8.8235 C.ar    1  UNL1        0.0139
     15 C          62.3106   86.4034    9.3110 C.ar    1  UNL1        0.0454
     16 C          60.2544   87.9750    9.0829 C.3     1  UNL1        0.0953
     17 C          58.9959   89.1949    7.1652 C.2     1  UNL1        0.2388
     18 O          58.0940   88.0076    7.0017 O.2     1  UNL1       -0.2736
     19 N          60.0761   89.1787    8.2058 N.am    1  UNL1       -0.3010
     20 H          60.6680   89.9580    8.3131 H       1  UNL1        0.1497
     21 C          58.8175   90.3987    6.2881 C.3     1  UNL1        0.1549
     22 C          59.7235   91.9860    4.4415 C.3     1  UNL1        0.0862
     23 N          59.9376   90.8512    5.3988 N.3     1  UNL1       -0.2887
     24 H          60.7075   91.1230    6.0102 H       1  UNL1        0.1237
     25 C          59.6326   87.9427   10.4476 C.3     1  UNL1        0.0242
     26 C          59.6321   89.1764   11.3009 C.3     1  UNL1        0.0020
     27 C          58.9800   89.1538   12.6516 C.3     1  UNL1        0.0001
     28 C          60.2837   90.4326   10.8036 C.3     1  UNL1        0.0001
     29 C          64.5973   90.9064   13.9740 C.3     1  UNL1        0.1564
     30 N          65.6703   91.4441   14.8738 N.am    1  UNL1       -0.2727
     31 C          67.1490   91.3075   14.6619 C.3     1  UNL1        0.0943
     32 C          67.8456   91.9918   15.8005 C.3     1  UNL1        0.0311
     33 C          66.7975   92.5513   16.7161 C.3     1  UNL1        0.0870
     34 C          65.4530   92.2128   16.1434 C.2     1  UNL1        0.2260
     35 O          64.1247   92.5788   16.7362 O.2     1  UNL1       -0.2749
     36 C          63.9873   91.7877   12.9245 C.3     1  UNL1        0.0564
     37 C          64.8591   92.6936   12.1065 C.ar    1  UNL1       -0.0094
     38 C          65.8732   93.5690   12.7815 C.ar    1  UNL1       -0.0025
     39 C          66.7450   94.4749   11.9634 C.ar    1  UNL1        0.0111
     40 C          66.6028   94.5054   10.4704 C.ar    1  UNL1        0.0585
     41 CL         67.4747   95.4113    9.6524 Cl      1  UNL1       -0.0822
     42 C          65.5889   93.6300    9.7956 C.ar    1  UNL1        0.0225
     43 C          64.7170   92.7241   10.6136 C.ar    1  UNL1        0.0546
     44 CL         63.7030   91.8488    9.9387 Cl      1  UNL1       -0.0825
@<TRIPOS>BOND
     1    22    23    1
     2    23    21    1
     3    21    17    1
     4    17    18    2
     5    17    19   am
     6    19    16    1
     7    16    25    1
     8    25    26    1
     9    26    27    1
    10    26    28    1
    11    16     9    1
    12     9    10   ar
    13    10    11   ar
    14    11    12    1
    15    11    13   ar
    16    13    14   ar
    17    14    15   ar
    18    15     1    1
    19     1     2    1
    20     2     3    1
    21     3     4    1
    22     4     5   am
    23     5     6    2
    24     5    29    1
    25    29    36    1
    26    36    37    1
    27    37    38   ar
    28    38    39   ar
    29    39    40   ar
    30    40    41    1
    31    40    42   ar
    32    42    43   ar
    33    43    44    1
    34    29    30    1
    35    30    31    1
    36    31    32    1
    37    32    33    1
    38    33    34    1
    39    34    35    2
    40     4     7    1
    41     7     8    1
    42    15     9   ar
    43     8     1    1
    44    43    37   ar
    45    34    30   am
    46    23    24    1
    47    19    20    1
@<TRIPOS>MOLECULE
*****
 44 47 0 0 0
SMALL
GASTEIGER

@<TRIPOS>ATOM
      1 N          63.1031   86.5578   13.2247 N.pl3   1  UNL1       -0.3043
      2 C          62.4189   87.3113   12.1228 C.3     1  UNL1        0.1123
      3 C          62.8042   88.7318   11.8338 C.3     1  UNL1        0.1149
      4 N          63.8739   89.3990   12.6468 N.am    1  UNL1       -0.2747
      5 C          64.2593   90.8195   12.3579 C.2     1  UNL1        0.2442
      6 O          63.5751   91.5729   11.2560 O.2     1  UNL1       -0.2731
      7 C          64.5581   88.6455   13.7487 C.3     1  UNL1        0.1149
      8 C          64.1727   87.2249   14.0376 C.3     1  UNL1        0.1123
      9 C          62.4081   84.1996   12.3844 C.ar    1  UNL1        0.0085
     10 C          62.0227   82.7791   12.6734 C.ar    1  UNL1       -0.0057
     11 C          61.9468   82.2962   14.0915 C.ar    1  UNL1       -0.0220
     12 C          61.5614   80.8756   14.3804 C.3     1  UNL1        0.0310
     13 C          62.2564   83.2338   15.2207 C.ar    1  UNL1       -0.0030
     14 C          62.6418   84.6543   14.9317 C.ar    1  UNL1        0.0139
     15 C          62.7176   85.1372   13.5136 C.ar    1  UNL1        0.0454
     16 C          62.4839   84.6826   10.9663 C.3     1  UNL1        0.0953
     17 C          61.4503   86.0208    8.9938 C.2     1  UNL1        0.2388
     18 O          62.4682   85.4332    8.0618 O.2     1  UNL1       -0.2736
     19 N          61.4582   85.6454   10.4461 N.am    1  UNL1       -0.3010
     20 H          60.7901   86.0311   11.0578 H       1  UNL1        0.1497
     21 C          60.4245   86.9837    8.4736 C.3     1  UNL1        0.1549
     22 C          60.3044   89.4566    9.2612 C.3     1  UNL1        0.0862
     23 N          59.8514   88.0317    9.3809 N.3     1  UNL1       -0.2887
     24 H          58.8423   88.0300    9.2322 H       1  UNL1        0.1237
     25 C          63.5854   84.2026   10.0685 C.3     1  UNL1        0.0242
     26 C          64.2983   82.9191   10.3762 C.3     1  UNL1        0.0020
     27 C          65.2636   82.8535   11.5224 C.3     1  UNL1        0.0001
     28 C          64.0459   81.7013    9.5376 C.3     1  UNL1        0.0001
     29 C          65.3289   91.4866   13.1708 C.3     1  UNL1        0.1564
     30 N          65.0982   91.7699   14.6256 N.am    1  UNL1       -0.2727
     31 C          63.9181   91.3205   15.4351 C.3     1  UNL1        0.0943
     32 C          64.0977   91.8252   16.8362 C.3     1  UNL1        0.0311
     33 C          65.3889   92.5867   16.8926 C.3     1  UNL1        0.0870
     34 C          66.0073   92.5525   15.5264 C.2     1  UNL1        0.2260
     35 O          67.3064   93.1891   15.1305 O.2     1  UNL1       -0.2749
     36 C          66.6292   91.8703   12.5289 C.3     1  UNL1        0.0564
     37 C          66.7025   93.0838   11.6502 C.ar    1  UNL1       -0.0094
     38 C          66.0988   94.3786   12.1076 C.ar    1  UNL1       -0.0025
     39 C          66.1720   95.5920   11.2289 C.ar    1  UNL1        0.0111
     40 C          66.8491   95.5107    9.8928 C.ar    1  UNL1        0.0585
     41 CL         66.9224   96.7242    9.0141 Cl      1  UNL1       -0.0822
     42 C          67.4528   94.2160    9.4355 C.ar    1  UNL1        0.0225
     43 C          67.3795   93.0026   10.3142 C.ar    1  UNL1        0.0546
     44 CL         67.9832   91.7078    9.8568 Cl      1  UNL1       -0.0825
@<TRIPOS>BOND
     1    22    23    1
     2    23    21    1
     3    21    17    1
     4    17    18    2
     5    17    19   am
     6    19    16    1
     7    16    25    1
     8    25    26    1
     9    26    27    1
    10    26    28    1
    11    16     9    1
    12     9    10   ar
    13    10    11   ar
    14    11    12    1
    15    11    13   ar
    16    13    14   ar
    17    14    15   ar
    18    15     1    1
    19     1     2    1
    20     2     3    1
    21     3     4    1
    22     4     5   am
    23     5     6    2
    24     5    29    1
    25    29    36    1
    26    36    37    1
    27    37    38   ar
    28    38    39   ar
    29    39    40   ar
    30    40    41    1
    31    40    42   ar
    32    42    43   ar
    33    43    44    1
    34    29    30    1
    35    30    31    1
    36    31    32    1
    37    32    33    1
    38    33    34    1
    39    34    35    2
    40     4     7    1
    41     7     8    1
    42    15     9   ar
    43     8     1    1
    44    43    37   ar
    45    34    30   am
    46    23    24    1
    47    19    20    1
