@<TRIPOS>MOLECULE
*****
 37 41 0 0 0
SMALL
GASTEIGER

@<TRIPOS>ATOM
      1 C          64.0310   88.5356   14.2816 C.3     1  UNL1        0.2330
      2 C          63.6252   87.7173   15.4715 C.ar    1  UNL1        0.0325
      3 C          63.2327   88.3964   16.7502 C.ar    1  UNL1       -0.0196
      4 C          63.2461   89.8936   16.8390 C.3     1  UNL1        0.0309
      5 C          62.8269   87.5780   17.9400 C.ar    1  UNL1        0.0162
      6 C          62.8136   86.0807   17.8511 C.ar    1  UNL1        0.0982
      7 N          63.2060   85.4017   16.5725 N.ar    1  UNL1       -0.2467
      8 C          63.6118   86.2200   15.3827 C.ar    1  UNL1        0.0780
      9 C          64.0042   85.5411   14.1040 C.3     1  UNL1        0.1355
     10 N          63.3197   85.9061   12.8202 N.am    1  UNL1       -0.2992
     11 C          63.2125   84.8983   11.7144 C.2     1  UNL1        0.2223
     12 O          63.7898   83.5254   11.8924 O.2     1  UNL1       -0.2751
     13 H          62.9407   86.8072   12.7034 H       1  UNL1        0.1498
     14 C          62.5279   85.2634   10.4306 C.3     1  UNL1        0.0765
     15 C          61.2487   86.0463   10.4591 C.3     1  UNL1        0.0091
     16 C          60.5641   86.4113    9.1753 C.3     1  UNL1        0.0005
     17 C          61.1587   85.9935    7.8632 C.3     1  UNL1        0.0000
     18 C          62.4379   85.2106    7.8347 C.3     1  UNL1        0.0005
     19 C          63.1225   84.8455    9.1184 C.3     1  UNL1        0.0091
     20 O          63.0831   89.5470   13.7084 O.3     1  UNL1       -0.4691
     21 C          66.7727   92.7709   15.9984 C.3     1  UNL1        0.0521
     22 C          66.1971   92.6658   14.6171 C.ar    1  UNL1        0.0595
     23 C          66.6595   93.6004   13.5389 C.ar    1  UNL1        0.0162
     24 C          66.0839   93.4954   12.1577 C.ar    1  UNL1        0.0201
     25 C          65.0459   92.4558   11.8547 C.ar    1  UNL1        0.0221
     26 C          64.4704   92.3508   10.4736 C.ar    1  UNL1        0.0017
     27 C          63.4324   91.3112   10.1707 C.ar    1  UNL1        0.0032
     28 C          62.9700   90.3766   11.2490 C.ar    1  UNL1        0.0385
     29 C          63.5455   90.4816   12.6301 C.ar    1  UNL1        0.1565
     30 C          64.5835   91.5212   12.9330 C.ar    1  UNL1        0.1147
     31 N          65.1591   91.6262   14.3142 N.ar    1  UNL1       -0.2466
     32 C          66.5464   94.4300   11.0794 C.ar    1  UNL1        0.0796
     33 C          66.1890   95.8818   10.9579 C.ar    1  UNL1        0.0412
     34 C          66.8691   96.4260    9.7367 C.ar    1  UNL1        0.1217
     35 N          67.6468   95.3106    9.1035 N.ar    1  UNL1       -0.1676
     36 N          67.4474   94.0770    9.9333 N.ar    1  UNL1       -0.2488
     37 C          68.0442   92.7274    9.6643 C.3     1  UNL1        0.1537
@<TRIPOS>BOND
     1    21    22    1
     2    22    23   ar
     3    23    24   ar
     4    24    32    1
     5    32    33   ar
     6    33    34   ar
     7    34    35   ar
     8    35    36   ar
     9    36    37    1
    10    24    25   ar
    11    25    26   ar
    12    26    27   ar
    13    27    28   ar
    14    28    29   ar
    15    29    20    1
    16    20     1    1
    17     1     2    1
    18     2     3   ar
    19     3     4    1
    20     3     5   ar
    21     5     6   ar
    22     6     7   ar
    23     7     8   ar
    24     8     9    1
    25     9    10    1
    26    10    11   am
    27    11    12    2
    28    11    14    1
    29    14    15    1
    30    15    16    1
    31    16    17    1
    32    17    18    1
    33    18    19    1
    34    29    30   ar
    35    30    31   ar
    36    31    22   ar
    37    36    32   ar
    38    30    25   ar
    39     8     2   ar
    40    19    14    1
    41    10    13    1
@<TRIPOS>MOLECULE
*****
 37 41 0 0 0
SMALL
GASTEIGER

@<TRIPOS>ATOM
      1 C          64.2403   88.7307   14.3934 C.3     1  UNL1        0.2330
      2 C          63.8253   87.8336   15.5218 C.ar    1  UNL1        0.0325
      3 C          63.1716   88.4148   16.7404 C.ar    1  UNL1       -0.0196
      4 C          62.9328   89.8929   16.8306 C.3     1  UNL1        0.0309
      5 C          62.7566   87.5178   17.8688 C.ar    1  UNL1        0.0162
      6 C          62.9954   86.0396   17.7785 C.ar    1  UNL1        0.0982
      7 N          63.6491   85.4585   16.5599 N.ar    1  UNL1       -0.2467
      8 C          64.0641   86.3556   15.4316 C.ar    1  UNL1        0.0780
      9 C          64.7178   85.7745   14.2130 C.3     1  UNL1        0.1355
     10 N          64.4726   84.3421   13.8413 N.am    1  UNL1       -0.2992
     11 C          63.2459   83.9686   13.0630 C.2     1  UNL1        0.2223
     12 O          62.2644   85.0275   12.6564 O.2     1  UNL1       -0.2751
     13 H          65.1168   83.6470   14.1081 H       1  UNL1        0.1498
     14 C          63.0007   82.5362   12.6912 C.3     1  UNL1        0.0765
     15 C          63.2227   82.0791   11.2799 C.3     1  UNL1        0.0091
     16 C          62.9776   80.6467   10.9082 C.3     1  UNL1        0.0005
     17 C          62.5104   79.6715   11.9477 C.3     1  UNL1        0.0000
     18 C          62.2883   80.1287   13.3590 C.3     1  UNL1        0.0005
     19 C          62.5335   81.5610   13.7307 C.3     1  UNL1        0.0091
     20 O          63.2239   89.5988   13.7128 O.3     1  UNL1       -0.4691
     21 C          66.8571   92.9063   15.9736 C.3     1  UNL1        0.0521
     22 C          66.2692   92.7913   14.5983 C.ar    1  UNL1        0.0595
     23 C          66.6964   93.7405   13.5183 C.ar    1  UNL1        0.0162
     24 C          66.1085   93.6256   12.1432 C.ar    1  UNL1        0.0201
     25 C          65.0934   92.5614   11.8479 C.ar    1  UNL1        0.0221
     26 C          64.5055   92.4465   10.4727 C.ar    1  UNL1        0.0017
     27 C          63.4904   91.3824   10.1776 C.ar    1  UNL1        0.0032
     28 C          63.0632   90.4331   11.2576 C.ar    1  UNL1        0.0385
     29 C          63.6511   90.5480   12.6328 C.ar    1  UNL1        0.1565
     30 C          64.6662   91.6122   12.9279 C.ar    1  UNL1        0.1147
     31 N          65.2541   91.7271   14.3032 N.ar    1  UNL1       -0.2466
     32 C          66.5357   94.5749   11.0631 C.ar    1  UNL1        0.0796
     33 C          66.1335   96.0151   10.9453 C.ar    1  UNL1        0.0412
     34 C          66.7893   96.5810    9.7207 C.ar    1  UNL1        0.1217
     35 N          67.5969   95.4904    9.0816 N.ar    1  UNL1       -0.1676
     36 N          67.4401   94.2506    9.9113 N.ar    1  UNL1       -0.2488
     37 C          68.0762   92.9200    9.6371 C.3     1  UNL1        0.1537
@<TRIPOS>BOND
     1    21    22    1
     2    22    23   ar
     3    23    24   ar
     4    24    32    1
     5    32    33   ar
     6    33    34   ar
     7    34    35   ar
     8    35    36   ar
     9    36    37    1
    10    24    25   ar
    11    25    26   ar
    12    26    27   ar
    13    27    28   ar
    14    28    29   ar
    15    29    20    1
    16    20     1    1
    17     1     2    1
    18     2     3   ar
    19     3     4    1
    20     3     5   ar
    21     5     6   ar
    22     6     7   ar
    23     7     8   ar
    24     8     9    1
    25     9    10    1
    26    10    11   am
    27    11    12    2
    28    11    14    1
    29    14    15    1
    30    15    16    1
    31    16    17    1
    32    17    18    1
    33    18    19    1
    34    29    30   ar
    35    30    31   ar
    36    31    22   ar
    37    36    32   ar
    38    30    25   ar
    39     8     2   ar
    40    19    14    1
    41    10    13    1
@<TRIPOS>MOLECULE
*****
 37 41 0 0 0
SMALL
GASTEIGER

@<TRIPOS>ATOM
      1 C          62.0060   88.5137   10.8305 C.3     1  UNL1        0.2330
      2 C          61.2216   87.9556    9.6801 C.ar    1  UNL1        0.0325
      3 C          60.1277   88.7687    9.0537 C.ar    1  UNL1       -0.0196
      4 C          59.8182   90.1397    9.5775 C.3     1  UNL1        0.0309
      5 C          59.3432   88.2107    7.9033 C.ar    1  UNL1        0.0162
      6 C          59.6527   86.8395    7.3795 C.ar    1  UNL1        0.0982
      7 N          60.7466   86.0266    8.0059 N.ar    1  UNL1       -0.2467
      8 C          61.5310   86.5846    9.1563 C.ar    1  UNL1        0.0780
      9 C          62.6248   85.7716    9.7827 C.3     1  UNL1        0.1355
     10 N          62.2930   84.7423   10.8222 N.am    1  UNL1       -0.2992
     11 C          63.1593   83.5278   10.9785 C.2     1  UNL1        0.2223
     12 O          64.3576   83.3426   10.0954 O.2     1  UNL1       -0.2751
     13 H          61.5065   84.8638   11.4018 H       1  UNL1        0.1498
     14 C          62.8275   82.4985   12.0180 C.3     1  UNL1        0.0765
     15 C          62.4274   82.9284   13.3983 C.3     1  UNL1        0.0091
     16 C          62.0955   81.8992   14.4377 C.3     1  UNL1        0.0005
     17 C          62.1638   80.4401   14.0969 C.3     1  UNL1        0.0000
     18 C          62.5639   80.0102   12.7167 C.3     1  UNL1        0.0005
     19 C          62.8957   81.0394   11.6772 C.3     1  UNL1        0.0091
     20 O          61.8933   89.9680   11.1798 O.3     1  UNL1       -0.4691
     21 C          63.0849   88.9293   16.3519 C.3     1  UNL1        0.0521
     22 C          63.7124   89.7850   15.2916 C.ar    1  UNL1        0.0595
     23 C          64.9462   90.5796   15.6019 C.ar    1  UNL1        0.0162
     24 C          65.5736   91.4352   14.5417 C.ar    1  UNL1        0.0201
     25 C          64.9673   91.4962   13.1710 C.ar    1  UNL1        0.0221
     26 C          65.5947   92.3518   12.1108 C.ar    1  UNL1        0.0017
     27 C          64.9884   92.4128   10.7402 C.ar    1  UNL1        0.0032
     28 C          63.7546   91.6182   10.4298 C.ar    1  UNL1        0.0385
     29 C          63.1271   90.7626   11.4901 C.ar    1  UNL1        0.1565
     30 C          63.7335   90.7016   12.8607 C.ar    1  UNL1        0.1147
     31 N          63.1060   89.8460   13.9210 N.ar    1  UNL1       -0.2466
     32 C          66.8075   92.2298   14.8520 C.ar    1  UNL1        0.0796
     33 C          66.9765   93.1849   15.9962 C.ar    1  UNL1        0.0412
     34 C          68.3624   93.7542   15.9240 C.ar    1  UNL1        0.1217
     35 N          69.0499   93.1509   14.7352 N.ar    1  UNL1       -0.1676
     36 N          68.0889   92.2087   14.0727 N.ar    1  UNL1       -0.2488
     37 C          68.3616   91.3894   12.8462 C.3     1  UNL1        0.1537
@<TRIPOS>BOND
     1    21    22    1
     2    22    23   ar
     3    23    24   ar
     4    24    32    1
     5    32    33   ar
     6    33    34   ar
     7    34    35   ar
     8    35    36   ar
     9    36    37    1
    10    24    25   ar
    11    25    26   ar
    12    26    27   ar
    13    27    28   ar
    14    28    29   ar
    15    29    20    1
    16    20     1    1
    17     1     2    1
    18     2     3   ar
    19     3     4    1
    20     3     5   ar
    21     5     6   ar
    22     6     7   ar
    23     7     8   ar
    24     8     9    1
    25     9    10    1
    26    10    11   am
    27    11    12    2
    28    11    14    1
    29    14    15    1
    30    15    16    1
    31    16    17    1
    32    17    18    1
    33    18    19    1
    34    29    30   ar
    35    30    31   ar
    36    31    22   ar
    37    36    32   ar
    38    30    25   ar
    39     8     2   ar
    40    19    14    1
    41    10    13    1
@<TRIPOS>MOLECULE
*****
 37 41 0 0 0
SMALL
GASTEIGER

@<TRIPOS>ATOM
      1 C          64.4371   88.7115   14.7935 C.3     1  UNL1        0.2330
      2 C          63.8518   87.6735   15.7046 C.ar    1  UNL1        0.0325
      3 C          63.0892   88.0923   16.9266 C.ar    1  UNL1       -0.0196
      4 C          62.9120   89.5489   17.2375 C.3     1  UNL1        0.0309
      5 C          62.5039   87.0543   17.8377 C.ar    1  UNL1        0.0162
      6 C          62.6811   85.5976   17.5267 C.ar    1  UNL1        0.0982
      7 N          63.4437   85.1789   16.3048 N.ar    1  UNL1       -0.2467
      8 C          64.0290   86.2169   15.3938 C.ar    1  UNL1        0.0780
      9 C          64.7916   85.7982   14.1718 C.3     1  UNL1        0.1355
     10 N          64.6206   84.4144   13.6186 N.am    1  UNL1       -0.2992
     11 C          63.3406   84.0323   12.9363 C.2     1  UNL1        0.2223
     12 O          62.2316   85.0339   12.8071 O.2     1  UNL1       -0.2751
     13 H          65.3485   83.7570   13.7033 H       1  UNL1        0.1498
     14 C          63.1697   82.6485   12.3830 C.3     1  UNL1        0.0765
     15 C          63.4787   82.3738   10.9412 C.3     1  UNL1        0.0091
     16 C          63.3078   80.9901   10.3879 C.3     1  UNL1        0.0005
     17 C          62.8278   79.8811   11.2765 C.3     1  UNL1        0.0000
     18 C          62.5187   80.1558   12.7184 C.3     1  UNL1        0.0005
     19 C          62.6897   81.5395   13.2717 C.3     1  UNL1        0.0091
     20 O          64.2870   90.1675   15.1211 O.3     1  UNL1       -0.4691
     21 C          62.2710   90.5679   10.1185 C.3     1  UNL1        0.0521
     22 C          63.4073   91.2320   10.8382 C.ar    1  UNL1        0.0595
     23 C          64.2504   92.2508   10.1303 C.ar    1  UNL1        0.0162
     24 C          65.3867   92.9148   10.8499 C.ar    1  UNL1        0.0201
     25 C          65.6799   92.5600   12.2776 C.ar    1  UNL1        0.0221
     26 C          66.8162   93.2240   12.9972 C.ar    1  UNL1        0.0017
     27 C          67.1094   92.8692   14.4248 C.ar    1  UNL1        0.0032
     28 C          66.2663   91.8504   15.1328 C.ar    1  UNL1        0.0385
     29 C          65.1300   91.1864   14.4132 C.ar    1  UNL1        0.1565
     30 C          64.8368   91.5412   12.9856 C.ar    1  UNL1        0.1147
     31 N          63.7005   90.8771   12.2658 N.ar    1  UNL1       -0.2466
     32 C          66.2297   93.9337   10.1420 C.ar    1  UNL1        0.0796
     33 C          65.9248   95.3970   10.0165 C.ar    1  UNL1        0.0412
     34 C          67.0323   96.0358    9.2322 C.ar    1  UNL1        0.1217
     35 N          68.0218   94.9673    8.8728 N.ar    1  UNL1       -0.1676
     36 N          67.5258   93.6681    9.4351 N.ar    1  UNL1       -0.2488
     37 C          68.2064   92.3371    9.3121 C.3     1  UNL1        0.1537
@<TRIPOS>BOND
     1    21    22    1
     2    22    23   ar
     3    23    24   ar
     4    24    32    1
     5    32    33   ar
     6    33    34   ar
     7    34    35   ar
     8    35    36   ar
     9    36    37    1
    10    24    25   ar
    11    25    26   ar
    12    26    27   ar
    13    27    28   ar
    14    28    29   ar
    15    29    20    1
    16    20     1    1
    17     1     2    1
    18     2     3   ar
    19     3     4    1
    20     3     5   ar
    21     5     6   ar
    22     6     7   ar
    23     7     8   ar
    24     8     9    1
    25     9    10    1
    26    10    11   am
    27    11    12    2
    28    11    14    1
    29    14    15    1
    30    15    16    1
    31    16    17    1
    32    17    18    1
    33    18    19    1
    34    29    30   ar
    35    30    31   ar
    36    31    22   ar
    37    36    32   ar
    38    30    25   ar
    39     8     2   ar
    40    19    14    1
    41    10    13    1
@<TRIPOS>MOLECULE
*****
 37 41 0 0 0
SMALL
GASTEIGER

@<TRIPOS>ATOM
      1 C          63.5768   88.6567   16.0606 C.3     1  UNL1        0.2330
      2 C          63.3087   87.1839   15.9660 C.ar    1  UNL1        0.0325
      3 C          62.8849   86.4189   17.1848 C.ar    1  UNL1       -0.0196
      4 C          62.7292   87.1267   18.4980 C.3     1  UNL1        0.0309
      5 C          62.6169   84.9460   17.0902 C.ar    1  UNL1        0.0162
      6 C          62.7726   84.2382   15.7768 C.ar    1  UNL1        0.0982
      7 N          63.1963   85.0032   14.5582 N.ar    1  UNL1       -0.2467
      8 C          63.4644   86.4760   14.6528 C.ar    1  UNL1        0.0780
      9 C          63.8881   87.2410   13.4341 C.3     1  UNL1        0.1355
     10 N          62.9214   87.4509   12.3065 N.am    1  UNL1       -0.2992
     11 C          62.5854   86.3155   11.3856 C.2     1  UNL1        0.2223
     12 O          63.2161   84.9703   11.5923 O.2     1  UNL1       -0.2751
     13 H          62.5074   88.3337   12.1708 H       1  UNL1        0.1498
     14 C          61.6187   86.5253   10.2580 C.3     1  UNL1        0.0765
     15 C          60.4155   87.3992   10.4544 C.3     1  UNL1        0.0091
     16 C          59.4487   87.6091    9.3269 C.3     1  UNL1        0.0005
     17 C          59.6852   86.9450    8.0029 C.3     1  UNL1        0.0000
     18 C          60.8884   86.0711    7.8064 C.3     1  UNL1        0.0005
     19 C          61.8551   85.8612    8.9340 C.3     1  UNL1        0.0091
     20 O          63.1713   89.5664   14.9390 O.3     1  UNL1       -0.4691
     21 C          62.0732   90.2136    9.6830 C.3     1  UNL1        0.0521
     22 C          63.0617   90.8369   10.6235 C.ar    1  UNL1        0.0595
     23 C          64.0135   91.8838   10.1255 C.ar    1  UNL1        0.0162
     24 C          65.0019   92.5071   11.0659 C.ar    1  UNL1        0.0201
     25 C          65.0385   92.0836   12.5045 C.ar    1  UNL1        0.0221
     26 C          66.0269   92.7069   13.4449 C.ar    1  UNL1        0.0017
     27 C          66.0635   92.2834   14.8834 C.ar    1  UNL1        0.0032
     28 C          65.1116   91.2365   15.3814 C.ar    1  UNL1        0.0385
     29 C          64.1232   90.6132   14.4410 C.ar    1  UNL1        0.1565
     30 C          64.0867   91.0367   13.0025 C.ar    1  UNL1        0.1147
     31 N          63.0982   90.4134   12.0620 N.ar    1  UNL1       -0.2466
     32 C          65.9538   93.5540   10.5679 C.ar    1  UNL1        0.0796
     33 C          65.6930   95.0302   10.5169 C.ar    1  UNL1        0.0412
     34 C          66.9116   95.6970    9.9509 C.ar    1  UNL1        0.1217
     35 N          67.9256   94.6328    9.6520 N.ar    1  UNL1       -0.1676
     36 N          67.3336   93.3084   10.0333 N.ar    1  UNL1       -0.2488
     37 C          68.0039   91.9728    9.9030 C.3     1  UNL1        0.1537
@<TRIPOS>BOND
     1    21    22    1
     2    22    23   ar
     3    23    24   ar
     4    24    32    1
     5    32    33   ar
     6    33    34   ar
     7    34    35   ar
     8    35    36   ar
     9    36    37    1
    10    24    25   ar
    11    25    26   ar
    12    26    27   ar
    13    27    28   ar
    14    28    29   ar
    15    29    20    1
    16    20     1    1
    17     1     2    1
    18     2     3   ar
    19     3     4    1
    20     3     5   ar
    21     5     6   ar
    22     6     7   ar
    23     7     8   ar
    24     8     9    1
    25     9    10    1
    26    10    11   am
    27    11    12    2
    28    11    14    1
    29    14    15    1
    30    15    16    1
    31    16    17    1
    32    17    18    1
    33    18    19    1
    34    29    30   ar
    35    30    31   ar
    36    31    22   ar
    37    36    32   ar
    38    30    25   ar
    39     8     2   ar
    40    19    14    1
    41    10    13    1
@<TRIPOS>MOLECULE
*****
 37 41 0 0 0
SMALL
GASTEIGER

@<TRIPOS>ATOM
      1 C          64.0725   88.1369   15.3495 C.3     1  UNL1        0.2330
      2 C          63.4261   86.7860   15.2638 C.ar    1  UNL1        0.0325
      3 C          62.9192   86.1169   16.5069 C.ar    1  UNL1       -0.0196
      4 C          63.0587   86.7987   17.8357 C.3     1  UNL1        0.0309
      5 C          62.2729   84.7660   16.4213 C.ar    1  UNL1        0.0162
      6 C          62.1334   84.0843   15.0924 C.ar    1  UNL1        0.0982
      7 N          62.6403   84.7534   13.8493 N.ar    1  UNL1       -0.2467
      8 C          63.2867   86.1043   13.9350 C.ar    1  UNL1        0.0780
      9 C          63.7936   86.7734   12.6919 C.3     1  UNL1        0.1355
     10 N          63.4157   86.2357   11.3434 N.am    1  UNL1       -0.2992
     11 C          62.1207   86.6470   10.7080 C.2     1  UNL1        0.2223
     12 O          61.2035   87.5958   11.4210 O.2     1  UNL1       -0.2751
     13 H          64.0178   85.6130   10.8755 H       1  UNL1        0.1498
     14 C          61.7429   86.1094    9.3595 C.3     1  UNL1        0.0765
     15 C          62.7465   85.3435    8.5494 C.3     1  UNL1        0.0091
     16 C          62.3688   84.8059    7.2010 C.3     1  UNL1        0.0005
     17 C          60.9874   85.0342    6.6627 C.3     1  UNL1        0.0000
     18 C          59.9839   85.8000    7.4728 C.3     1  UNL1        0.0005
     19 C          60.3616   86.3376    8.8212 C.3     1  UNL1        0.0091
     20 O          63.2758   89.3703   15.0434 O.3     1  UNL1       -0.4691
     21 C          67.3716   92.6702   16.3025 C.3     1  UNL1        0.0521
     22 C          66.5663   92.4398   15.0581 C.ar    1  UNL1        0.0595
     23 C          66.8580   93.2327   13.8186 C.ar    1  UNL1        0.0162
     24 C          66.0528   93.0024   12.5742 C.ar    1  UNL1        0.0201
     25 C          64.9559   91.9792   12.5693 C.ar    1  UNL1        0.0221
     26 C          64.1507   91.7489   11.3249 C.ar    1  UNL1        0.0017
     27 C          63.0538   90.7257   11.3200 C.ar    1  UNL1        0.0032
     28 C          62.7622   89.9329   12.5595 C.ar    1  UNL1        0.0385
     29 C          63.5674   90.1632   13.8039 C.ar    1  UNL1        0.1565
     30 C          64.6642   91.1863   13.8088 C.ar    1  UNL1        0.1147
     31 N          65.4695   91.4167   15.0532 N.ar    1  UNL1       -0.2466
     32 C          66.3444   93.7952   11.3347 C.ar    1  UNL1        0.0796
     33 C          65.8266   95.1683   11.0242 C.ar    1  UNL1        0.0412
     34 C          66.3672   95.5759    9.6857 C.ar    1  UNL1        0.1217
     35 N          67.2192   94.4547    9.1689 N.ar    1  UNL1       -0.1676
     36 N          67.2050   93.3542   10.1881 N.ar    1  UNL1       -0.2488
     37 C          67.9252   92.0428   10.0796 C.3     1  UNL1        0.1537
@<TRIPOS>BOND
     1    21    22    1
     2    22    23   ar
     3    23    24   ar
     4    24    32    1
     5    32    33   ar
     6    33    34   ar
     7    34    35   ar
     8    35    36   ar
     9    36    37    1
    10    24    25   ar
    11    25    26   ar
    12    26    27   ar
    13    27    28   ar
    14    28    29   ar
    15    29    20    1
    16    20     1    1
    17     1     2    1
    18     2     3   ar
    19     3     4    1
    20     3     5   ar
    21     5     6   ar
    22     6     7   ar
    23     7     8   ar
    24     8     9    1
    25     9    10    1
    26    10    11   am
    27    11    12    2
    28    11    14    1
    29    14    15    1
    30    15    16    1
    31    16    17    1
    32    17    18    1
    33    18    19    1
    34    29    30   ar
    35    30    31   ar
    36    31    22   ar
    37    36    32   ar
    38    30    25   ar
    39     8     2   ar
    40    19    14    1
    41    10    13    1
@<TRIPOS>MOLECULE
*****
 37 41 0 0 0
SMALL
GASTEIGER

@<TRIPOS>ATOM
      1 C          64.6285   89.7795   13.8226 C.3     1  UNL1        0.2330
      2 C          65.0386   90.8630   14.7754 C.ar    1  UNL1        0.0325
      3 C          64.2878   91.0563   16.0595 C.ar    1  UNL1       -0.0196
      4 C          63.1270   90.1660   16.3909 C.3     1  UNL1        0.0309
      5 C          64.6980   92.1398   17.0123 C.ar    1  UNL1        0.0162
      6 C          65.8589   93.0300   16.6810 C.ar    1  UNL1        0.0982
      7 N          66.6096   92.8368   15.3969 N.ar    1  UNL1       -0.2467
      8 C          66.1995   91.7533   14.4441 C.ar    1  UNL1        0.0780
      9 C          66.9502   91.5600   13.1599 C.3     1  UNL1        0.1355
     10 N          67.2232   92.7338   12.2668 N.am    1  UNL1       -0.2992
     11 C          66.1645   93.2193   11.3216 C.2     1  UNL1        0.2223
     12 O          64.8327   92.5310   11.2696 O.2     1  UNL1       -0.2751
     13 H          68.0973   93.1856   12.3009 H       1  UNL1        0.1498
     14 C          66.4375   94.3931   10.4284 C.3     1  UNL1        0.0765
     15 C          67.4524   94.2795    9.3298 C.3     1  UNL1        0.0091
     16 C          67.7254   95.4532    8.4366 C.3     1  UNL1        0.0005
     17 C          66.9835   96.7405    8.6421 C.3     1  UNL1        0.0000
     18 C          65.9686   96.8542    9.7407 C.3     1  UNL1        0.0005
     19 C          65.6956   95.6804   10.6339 C.3     1  UNL1        0.0091
     20 O          63.1760   89.5527   13.5250 O.3     1  UNL1       -0.4691
     21 C          63.4121   84.1571   13.2392 C.3     1  UNL1        0.0521
     22 C          63.0281   85.2343   12.2685 C.ar    1  UNL1        0.0595
     23 C          62.5949   84.8719   10.8788 C.ar    1  UNL1        0.0162
     24 C          62.2109   85.9490    9.9081 C.ar    1  UNL1        0.0201
     25 C          62.2602   87.3886   10.3269 C.ar    1  UNL1        0.0221
     26 C          61.8762   88.4657    9.3562 C.ar    1  UNL1        0.0017
     27 C          61.9255   89.9051    9.7751 C.ar    1  UNL1        0.0032
     28 C          62.3588   90.2675   11.1647 C.ar    1  UNL1        0.0385
     29 C          62.7427   89.1904   12.1354 C.ar    1  UNL1        0.1565
     30 C          62.6934   87.7509   11.7165 C.ar    1  UNL1        0.1147
     31 N          63.0774   86.6737   12.6873 N.ar    1  UNL1       -0.2466
     32 C          61.7777   85.5867    8.5185 C.ar    1  UNL1        0.0796
     33 C          62.5941   84.8374    7.5076 C.ar    1  UNL1        0.0412
     34 C          61.7729   84.6976    6.2601 C.ar    1  UNL1        0.1217
     35 N          60.4489   85.3605    6.5001 N.ar    1  UNL1       -0.1676
     36 N          60.4519   85.9100    7.8958 N.ar    1  UNL1       -0.2488
     37 C          59.3265   86.6524    8.5534 C.3     1  UNL1        0.1537
@<TRIPOS>BOND
     1    21    22    1
     2    22    23   ar
     3    23    24   ar
     4    24    32    1
     5    32    33   ar
     6    33    34   ar
     7    34    35   ar
     8    35    36   ar
     9    36    37    1
    10    24    25   ar
    11    25    26   ar
    12    26    27   ar
    13    27    28   ar
    14    28    29   ar
    15    29    20    1
    16    20     1    1
    17     1     2    1
    18     2     3   ar
    19     3     4    1
    20     3     5   ar
    21     5     6   ar
    22     6     7   ar
    23     7     8   ar
    24     8     9    1
    25     9    10    1
    26    10    11   am
    27    11    12    2
    28    11    14    1
    29    14    15    1
    30    15    16    1
    31    16    17    1
    32    17    18    1
    33    18    19    1
    34    29    30   ar
    35    30    31   ar
    36    31    22   ar
    37    36    32   ar
    38    30    25   ar
    39     8     2   ar
    40    19    14    1
    41    10    13    1
