@<TRIPOS>MOLECULE
*****
 21 24 0 0 0
SMALL
GASTEIGER

@<TRIPOS>ATOM
      1 F          58.6940   89.0942    6.5830 F       1  UNL1       -0.2042
      2 C          59.5219   88.4746    7.6696 C.ar    1  UNL1        0.1402
      3 C          59.5675   86.9828    7.8195 C.ar    1  UNL1        0.0301
      4 C          60.3954   86.3632    8.9061 C.ar    1  UNL1        0.0088
      5 C          61.1775   87.2353    9.8428 C.ar    1  UNL1        0.0290
      6 S          62.0757   86.9130   11.0002 S.2     1  UNL1       -0.0902
      7 C          62.5851   88.2056   11.5656 C.ar    1  UNL1        0.0195
      8 C          62.0018   89.3268   10.7577 C.ar    1  UNL1       -0.0169
      9 C          61.1319   88.7271    9.6930 C.ar    1  UNL1        0.0045
     10 C          60.3040   89.3467    8.6064 C.ar    1  UNL1        0.0298
     11 C          62.3382   90.7488   11.0959 C.3     1  UNL1        0.0439
     12 C          63.2579   91.0498   12.2421 C.3     1  UNL1        0.0774
     13 N          63.8412   89.9286   13.0499 N.3     1  UNL1       -0.2632
     14 C          63.5048   88.5065   12.7117 C.3     1  UNL1        0.1056
     15 C          64.7609   90.2295   14.1961 C.3     1  UNL1        0.1183
     16 C          65.6639   91.4260   14.1390 C.ar    1  UNL1        0.0706
     17 C          66.5192   91.8302   12.9750 C.ar    1  UNL1        0.1145
     18 N          67.2540   93.0823   13.3524 N.ar    1  UNL1       -0.2228
     19 C          66.8527   93.4518   14.7497 C.ar    1  UNL1        0.1748
     20 N          65.8700   92.4282   15.2359 N.ar    1  UNL1       -0.3371
     21 H          65.4364   92.4162   16.1197 H       1  UNL1        0.1672
@<TRIPOS>BOND
     1     1     2    1
     2     2     3   ar
     3     3     4   ar
     4     4     5   ar
     5     5     6   ar
     6     6     7   ar
     7     7     8   ar
     8     8     9   ar
     9     9    10   ar
    10     8    11    1
    11    11    12    1
    12    12    13    1
    13    13    15    1
    14    15    16    1
    15    16    17   ar
    16    17    18   ar
    17    18    19   ar
    18    19    20   ar
    19    13    14    1
    20    10     2   ar
    21    20    16   ar
    22     9     5   ar
    23    14     7    1
    24    20    21    1
@<TRIPOS>MOLECULE
*****
 21 24 0 0 0
SMALL
GASTEIGER

@<TRIPOS>ATOM
      1 F          66.8769   95.0973   11.2303 F       1  UNL1       -0.2042
      2 C          66.2340   93.9199   11.9013 C.ar    1  UNL1        0.1402
      3 C          66.6050   93.5650   13.3106 C.ar    1  UNL1        0.0301
      4 C          65.9621   92.3875   13.9817 C.ar    1  UNL1        0.0088
      5 C          64.9481   91.5650   13.2433 C.ar    1  UNL1        0.0290
      6 S          64.1529   90.3572   13.6418 S.2     1  UNL1       -0.0902
      7 C          63.2904   89.9656   12.4788 C.ar    1  UNL1        0.0195
      8 C          63.5525   90.9314   11.3614 C.ar    1  UNL1       -0.0169
      9 C          64.5770   91.9199   11.8340 C.ar    1  UNL1        0.0045
     10 C          65.2200   93.0974   11.1630 C.ar    1  UNL1        0.0298
     11 C          62.8244   90.7860   10.0582 C.3     1  UNL1        0.0439
     12 C          61.8342   89.6747    9.8721 C.3     1  UNL1        0.0774
     13 N          61.5721   88.7089   10.9895 N.3     1  UNL1       -0.2632
     14 C          62.3002   88.8543   12.2928 C.3     1  UNL1        0.1056
     15 C          60.5819   87.5976   10.8035 C.3     1  UNL1        0.1183
     16 C          60.4164   86.9580    9.4568 C.ar    1  UNL1        0.0706
     17 C          59.2200   87.0857    8.5611 C.ar    1  UNL1        0.1145
     18 N          59.4825   86.2851    7.3201 N.ar    1  UNL1       -0.2228
     19 C          60.8412   85.6627    7.4488 C.ar    1  UNL1        0.1748
     20 N          61.4184   86.0785    8.7693 N.ar    1  UNL1       -0.3371
     21 H          62.3001   85.8197    9.1227 H       1  UNL1        0.1672
@<TRIPOS>BOND
     1     1     2    1
     2     2     3   ar
     3     3     4   ar
     4     4     5   ar
     5     5     6   ar
     6     6     7   ar
     7     7     8   ar
     8     8     9   ar
     9     9    10   ar
    10     8    11    1
    11    11    12    1
    12    12    13    1
    13    13    15    1
    14    15    16    1
    15    16    17   ar
    16    17    18   ar
    17    18    19   ar
    18    19    20   ar
    19    13    14    1
    20    10     2   ar
    21    20    16   ar
    22     9     5   ar
    23    14     7    1
    24    20    21    1
@<TRIPOS>MOLECULE
*****
 21 24 0 0 0
SMALL
GASTEIGER

@<TRIPOS>ATOM
      1 F          61.9739   84.0762   10.8851 F       1  UNL1       -0.2042
      2 C          62.1106   85.5694   10.8454 C.ar    1  UNL1        0.1402
      3 C          61.5650   86.3418    9.6811 C.ar    1  UNL1        0.0301
      4 C          61.7017   87.8351    9.6415 C.ar    1  UNL1        0.0088
      5 C          62.3839   88.5559   10.7662 C.ar    1  UNL1        0.0290
      6 S          62.6650   90.0103   11.0022 S.2     1  UNL1       -0.0902
      7 C          63.3842   90.1367   12.3124 C.ar    1  UNL1        0.0195
      8 C          63.5477   88.7605   12.8862 C.ar    1  UNL1       -0.0169
      9 C          62.9294   87.7835   11.9305 C.ar    1  UNL1        0.0045
     10 C          62.7928   86.2902   11.9701 C.ar    1  UNL1        0.0298
     11 C          64.2384   88.5748   14.2046 C.3     1  UNL1        0.0439
     12 C          64.7656   89.7653   14.9494 C.3     1  UNL1        0.0774
     13 N          64.6021   91.1415   14.3756 N.3     1  UNL1       -0.2632
     14 C          63.9114   91.3272   13.0571 C.3     1  UNL1        0.1056
     15 C          65.1293   92.3321   15.1204 C.3     1  UNL1        0.1183
     16 C          66.5991   92.6320   15.1112 C.ar    1  UNL1        0.0706
     17 C          67.5929   92.1403   14.1010 C.ar    1  UNL1        0.1145
     18 N          68.9410   92.6806   14.4761 N.ar    1  UNL1       -0.2228
     19 C          68.7803   93.5062   15.7181 C.ar    1  UNL1        0.1748
     20 N          67.3330   93.4762   16.1107 N.ar    1  UNL1       -0.3371
     21 H          66.9346   93.9307   16.8878 H       1  UNL1        0.1672
@<TRIPOS>BOND
     1     1     2    1
     2     2     3   ar
     3     3     4   ar
     4     4     5   ar
     5     5     6   ar
     6     6     7   ar
     7     7     8   ar
     8     8     9   ar
     9     9    10   ar
    10     8    11    1
    11    11    12    1
    12    12    13    1
    13    13    15    1
    14    15    16    1
    15    16    17   ar
    16    17    18   ar
    17    18    19   ar
    18    19    20   ar
    19    13    14    1
    20    10     2   ar
    21    20    16   ar
    22     9     5   ar
    23    14     7    1
    24    20    21    1
@<TRIPOS>MOLECULE
*****
 21 24 0 0 0
SMALL
GASTEIGER

@<TRIPOS>ATOM
      1 F          58.6574   89.6327    6.3980 F       1  UNL1       -0.2042
      2 C          59.3556   88.6977    7.3404 C.ar    1  UNL1        0.1402
      3 C          59.2580   87.2150    7.1354 C.ar    1  UNL1        0.0301
      4 C          59.9561   86.2799    8.0778 C.ar    1  UNL1        0.0088
      5 C          60.7519   86.8275    9.2253 C.ar    1  UNL1        0.0290
      6 S          61.5421   86.1567   10.3096 S.2     1  UNL1       -0.0902
      7 C          62.1280   87.2247   11.1847 C.ar    1  UNL1        0.0195
      8 C          61.7000   88.5557   10.6414 C.ar    1  UNL1       -0.0169
      9 C          60.8495   88.3102    9.4304 C.ar    1  UNL1        0.0045
     10 C          60.1513   89.2453    8.4879 C.ar    1  UNL1        0.0298
     11 C          62.1400   89.8192   11.3195 C.3     1  UNL1        0.0439
     12 C          63.0080   89.7518   12.5410 C.3     1  UNL1        0.0774
     13 N          63.4360   88.4208   13.0843 N.3     1  UNL1       -0.2632
     14 C          62.9960   87.1572   12.4062 C.3     1  UNL1        0.1056
     15 C          64.3041   88.3533   14.3058 C.3     1  UNL1        0.1183
     16 C          63.7645   87.7699   15.5780 C.ar    1  UNL1        0.0706
     17 C          63.2555   88.5449   16.7571 C.ar    1  UNL1        0.1145
     18 N          62.8156   87.5630   17.8023 N.ar    1  UNL1       -0.2228
     19 C          63.0527   86.1812   17.2691 C.ar    1  UNL1        0.1748
     20 N          63.6391   86.3090   15.8945 N.ar    1  UNL1       -0.3371
     21 H          63.8966   85.5647   15.3037 H       1  UNL1        0.1672
@<TRIPOS>BOND
     1     1     2    1
     2     2     3   ar
     3     3     4   ar
     4     4     5   ar
     5     5     6   ar
     6     6     7   ar
     7     7     8   ar
     8     8     9   ar
     9     9    10   ar
    10     8    11    1
    11    11    12    1
    12    12    13    1
    13    13    15    1
    14    15    16    1
    15    16    17   ar
    16    17    18   ar
    17    18    19   ar
    18    19    20   ar
    19    13    14    1
    20    10     2   ar
    21    20    16   ar
    22     9     5   ar
    23    14     7    1
    24    20    21    1
@<TRIPOS>MOLECULE
*****
 21 24 0 0 0
SMALL
GASTEIGER

@<TRIPOS>ATOM
      1 F          66.9729   92.3440   16.6247 F       1  UNL1       -0.2042
      2 C          66.5264   92.4053   15.1940 C.ar    1  UNL1        0.1402
      3 C          67.2649   93.2682   14.2142 C.ar    1  UNL1        0.0301
      4 C          66.8185   93.3295   12.7835 C.ar    1  UNL1        0.0088
      5 C          65.6335   92.5279   12.3326 C.ar    1  UNL1        0.0290
      6 S          64.9659   92.3880   10.9966 S.2     1  UNL1       -0.0902
      7 C          63.8148   91.4387   11.1508 C.ar    1  UNL1        0.0195
      8 C          63.7710   90.9919   12.5820 C.ar    1  UNL1       -0.0169
      9 C          64.8950   91.6651   13.3124 C.ar    1  UNL1        0.0045
     10 C          65.3415   91.6038   14.7431 C.ar    1  UNL1        0.0298
     11 C          62.7132   90.0298   13.0352 C.3     1  UNL1        0.0439
     12 C          61.6993   89.5145   12.0573 C.3     1  UNL1        0.0774
     13 N          61.7431   89.9614   10.6261 N.3     1  UNL1       -0.2632
     14 C          62.8009   90.9235   10.1728 C.3     1  UNL1        0.1056
     15 C          60.7291   89.4461    9.6481 C.3     1  UNL1        0.1183
     16 C          60.8664   88.0629    9.0842 C.ar    1  UNL1        0.0706
     17 C          59.8660   87.3626    8.2132 C.ar    1  UNL1        0.1145
     18 N          60.4095   86.0041    7.8830 N.ar    1  UNL1       -0.2228
     19 C          61.7459   85.8649    8.5498 C.ar    1  UNL1        0.1748
     20 N          62.0283   87.1373    9.2922 N.ar    1  UNL1       -0.3371
     21 H          62.8347   87.3309    9.8228 H       1  UNL1        0.1672
@<TRIPOS>BOND
     1     1     2    1
     2     2     3   ar
     3     3     4   ar
     4     4     5   ar
     5     5     6   ar
     6     6     7   ar
     7     7     8   ar
     8     8     9   ar
     9     9    10   ar
    10     8    11    1
    11    11    12    1
    12    12    13    1
    13    13    15    1
    14    15    16    1
    15    16    17   ar
    16    17    18   ar
    17    18    19   ar
    18    19    20   ar
    19    13    14    1
    20    10     2   ar
    21    20    16   ar
    22     9     5   ar
    23    14     7    1
    24    20    21    1
@<TRIPOS>MOLECULE
*****
 21 24 0 0 0
SMALL
GASTEIGER

@<TRIPOS>ATOM
      1 F          60.0834   85.3681    7.7001 F       1  UNL1       -0.2042
      2 C          60.3578   86.6925    8.3487 C.ar    1  UNL1        0.1402
      3 C          59.7326   87.9404    7.7995 C.ar    1  UNL1        0.0301
      4 C          60.0070   89.2648    8.4481 C.ar    1  UNL1        0.0088
      5 C          60.9066   89.3413    9.6458 C.ar    1  UNL1        0.0290
      6 S          61.3581   90.4961   10.4900 S.2     1  UNL1       -0.0902
      7 C          62.2624   89.9618   11.5609 C.ar    1  UNL1        0.0195
      8 C          62.3698   88.4768   11.3787 C.ar    1  UNL1       -0.0169
      9 C          61.5319   88.0933   10.1950 C.ar    1  UNL1        0.0045
     10 C          61.2575   86.7689    9.5465 C.ar    1  UNL1        0.0298
     11 C          63.2167   87.6658   12.3139 C.3     1  UNL1        0.0439
     12 C          63.9562   88.3396   13.4315 C.3     1  UNL1        0.0774
     13 N          63.8488   89.8246   13.6138 N.3     1  UNL1       -0.2632
     14 C          63.0019   90.6357   12.6784 C.3     1  UNL1        0.1056
     15 C          64.5883   90.4986   14.7314 C.3     1  UNL1        0.1183
     16 C          65.5325   91.6255   14.4337 C.ar    1  UNL1        0.0706
     17 C          66.2129   91.8824   13.1218 C.ar    1  UNL1        0.1145
     18 N          67.0630   93.1090   13.2730 N.ar    1  UNL1       -0.2228
     19 C          66.9080   93.6101   14.6783 C.ar    1  UNL1        0.1748
     20 N          65.9621   92.6933   15.3957 N.ar    1  UNL1       -0.3371
     21 H          65.6739   92.7775   16.3333 H       1  UNL1        0.1672
@<TRIPOS>BOND
     1     1     2    1
     2     2     3   ar
     3     3     4   ar
     4     4     5   ar
     5     5     6   ar
     6     6     7   ar
     7     7     8   ar
     8     8     9   ar
     9     9    10   ar
    10     8    11    1
    11    11    12    1
    12    12    13    1
    13    13    15    1
    14    15    16    1
    15    16    17   ar
    16    17    18   ar
    17    18    19   ar
    18    19    20   ar
    19    13    14    1
    20    10     2   ar
    21    20    16   ar
    22     9     5   ar
    23    14     7    1
    24    20    21    1
@<TRIPOS>MOLECULE
*****
 21 24 0 0 0
SMALL
GASTEIGER

@<TRIPOS>ATOM
      1 F          64.0564   92.5486   12.2020 F       1  UNL1       -0.2042
      2 C          63.6062   91.1403   11.9489 C.ar    1  UNL1        0.1402
      3 C          62.7842   90.8223   10.7352 C.ar    1  UNL1        0.0301
      4 C          62.3341   89.4140   10.4821 C.ar    1  UNL1        0.0088
      5 C          62.7059   88.3237   11.4427 C.ar    1  UNL1        0.0290
      6 S          62.4090   86.8534   11.4562 S.2     1  UNL1       -0.0902
      7 C          63.0475   86.2627   12.6782 C.ar    1  UNL1        0.0195
      8 C          63.7390   87.3679   13.4201 C.ar    1  UNL1       -0.0169
      9 C          63.5279   88.6416   12.6564 C.ar    1  UNL1        0.0045
     10 C          63.9781   90.0499   12.9095 C.ar    1  UNL1        0.0298
     11 C          64.4716   87.0716   14.6950 C.3     1  UNL1        0.0439
     12 C          64.5126   85.6702   15.2281 C.3     1  UNL1        0.0774
     13 N          63.8210   84.5650   14.4863 N.3     1  UNL1       -0.2632
     14 C          63.0884   84.8613   13.2113 C.3     1  UNL1        0.1056
     15 C          63.8620   83.1635   15.0194 C.3     1  UNL1        0.1183
     16 C          63.1805   82.0562   14.2713 C.ar    1  UNL1        0.0706
     17 C          63.6750   81.4084   13.0120 C.ar    1  UNL1        0.1145
     18 N          62.6851   80.3542   12.6135 N.ar    1  UNL1       -0.2228
     19 C          61.5788   80.3506   13.6265 C.ar    1  UNL1        0.1748
     20 N          61.8850   81.4025   14.6511 N.ar    1  UNL1       -0.3371
     21 H          61.3326   81.6247   15.4351 H       1  UNL1        0.1672
@<TRIPOS>BOND
     1     1     2    1
     2     2     3   ar
     3     3     4   ar
     4     4     5   ar
     5     5     6   ar
     6     6     7   ar
     7     7     8   ar
     8     8     9   ar
     9     9    10   ar
    10     8    11    1
    11    11    12    1
    12    12    13    1
    13    13    15    1
    14    15    16    1
    15    16    17   ar
    16    17    18   ar
    17    18    19   ar
    18    19    20   ar
    19    13    14    1
    20    10     2   ar
    21    20    16   ar
    22     9     5   ar
    23    14     7    1
    24    20    21    1
@<TRIPOS>MOLECULE
*****
 21 24 0 0 0
SMALL
GASTEIGER

@<TRIPOS>ATOM
      1 F          60.8126   86.9459    8.0770 F       1  UNL1       -0.2042
      2 C          61.4864   86.9180    9.4169 C.ar    1  UNL1        0.1402
      3 C          61.6411   85.6196   10.1517 C.ar    1  UNL1        0.0301
      4 C          62.3149   85.5917   11.4916 C.ar    1  UNL1        0.0088
      5 C          62.8341   86.8623   12.0966 C.ar    1  UNL1        0.0290
      6 S          63.5369   87.1434   13.3916 S.2     1  UNL1       -0.0902
      7 C          63.8166   88.6157   13.4571 C.ar    1  UNL1        0.0195
      8 C          63.2866   89.2444   12.2026 C.ar    1  UNL1       -0.0169
      9 C          62.6794   88.1607   11.3618 C.ar    1  UNL1        0.0045
     10 C          62.0056   88.1886   10.0219 C.ar    1  UNL1        0.0298
     11 C          63.4255   90.7224   11.9880 C.3     1  UNL1        0.0439
     12 C          64.0943   91.5717   13.0279 C.3     1  UNL1        0.0774
     13 N          64.6242   90.9429   14.2823 N.3     1  UNL1       -0.2632
     14 C          64.4854   89.4649   14.4970 C.3     1  UNL1        0.1056
     15 C          65.2931   91.7923   15.3223 C.3     1  UNL1        0.1183
     16 C          66.7286   92.1934   15.1533 C.ar    1  UNL1        0.0706
     17 C          67.5796   91.9360   13.9452 C.ar    1  UNL1        0.1145
     18 N          68.9420   92.5058   14.2080 N.ar    1  UNL1       -0.2228
     19 C          68.9330   93.1154   15.5785 C.ar    1  UNL1        0.1748
     20 N          67.5651   92.9223   16.1628 N.ar    1  UNL1       -0.3371
     21 H          67.2684   93.2214   17.0526 H       1  UNL1        0.1672
@<TRIPOS>BOND
     1     1     2    1
     2     2     3   ar
     3     3     4   ar
     4     4     5   ar
     5     5     6   ar
     6     6     7   ar
     7     7     8   ar
     8     8     9   ar
     9     9    10   ar
    10     8    11    1
    11    11    12    1
    12    12    13    1
    13    13    15    1
    14    15    16    1
    15    16    17   ar
    16    17    18   ar
    17    18    19   ar
    18    19    20   ar
    19    13    14    1
    20    10     2   ar
    21    20    16   ar
    22     9     5   ar
    23    14     7    1
    24    20    21    1
@<TRIPOS>MOLECULE
*****
 21 24 0 0 0
SMALL
GASTEIGER

@<TRIPOS>ATOM
      1 F          59.8711   88.0985    7.8883 F       1  UNL1       -0.2042
      2 C          60.6687   88.3208    9.1391 C.ar    1  UNL1        0.1402
      3 C          60.5582   87.3542   10.2808 C.ar    1  UNL1        0.0301
      4 C          61.3558   87.5764   11.5315 C.ar    1  UNL1        0.0088
      5 C          62.2640   88.7652   11.6406 C.ar    1  UNL1        0.0290
      6 S          63.1665   89.2413   12.7400 S.2     1  UNL1       -0.0902
      7 C          63.8349   90.5022   12.2778 C.ar    1  UNL1        0.0195
      8 C          63.3454   90.8053   10.8927 C.ar    1  UNL1       -0.0169
      9 C          62.3746   89.7317   10.4989 C.ar    1  UNL1        0.0045
     10 C          61.5769   89.5095    9.2482 C.ar    1  UNL1        0.0298
     11 C          63.8470   92.0196   10.1691 C.3     1  UNL1        0.0439
     12 C          64.8380   92.9308   10.8305 C.3     1  UNL1        0.0774
     13 N          65.3275   92.6277   12.2156 N.3     1  UNL1       -0.2632
     14 C          64.8259   91.4133   12.9393 C.3     1  UNL1        0.1056
     15 C          66.3186   93.5390   12.8771 C.3     1  UNL1        0.1183
     16 C          67.0379   93.0924   14.1153 C.ar    1  UNL1        0.0706
     17 C          66.4365   92.9527   15.4824 C.ar    1  UNL1        0.1145
     18 N          67.5118   92.4811   16.4158 N.ar    1  UNL1       -0.2228
     19 C          68.7778   92.3292   15.6256 C.ar    1  UNL1        0.1748
     20 N          68.4849   92.7070   14.2038 N.ar    1  UNL1       -0.3371
     21 H          69.1292   92.7028   13.4595 H       1  UNL1        0.1672
@<TRIPOS>BOND
     1     1     2    1
     2     2     3   ar
     3     3     4   ar
     4     4     5   ar
     5     5     6   ar
     6     6     7   ar
     7     7     8   ar
     8     8     9   ar
     9     9    10   ar
    10     8    11    1
    11    11    12    1
    12    12    13    1
    13    13    15    1
    14    15    16    1
    15    16    17   ar
    16    17    18   ar
    17    18    19   ar
    18    19    20   ar
    19    13    14    1
    20    10     2   ar
    21    20    16   ar
    22     9     5   ar
    23    14     7    1
    24    20    21    1
