@<TRIPOS>MOLECULE
*****
 37 40 0 0 0
SMALL
GASTEIGER

@<TRIPOS>ATOM
      1 C          63.4027   84.8372   13.3373 C.3     1  UNL1        0.3254
      2 F          64.6451   85.6481   13.1158 F       1  UNL1       -0.1949
      3 F          62.0293   84.2360   13.2893 F       1  UNL1       -0.1949
      4 C          62.7084   85.6042   12.2510 C.ar    1  UNL1        0.1218
      5 C          61.9641   84.8720   11.1741 C.ar    1  UNL1        0.0202
      6 C          61.2698   85.6390   10.0879 C.ar    1  UNL1        0.0029
      7 C          61.3199   87.1381   10.0787 C.ar    1  UNL1        0.0192
      8 C          62.0643   87.8703   11.1557 C.ar    1  UNL1        0.0986
      9 N          62.7585   87.1033   12.2418 N.ar    1  UNL1       -0.2427
     10 C          60.6257   87.9051    8.9925 C.ar    1  UNL1        0.0017
     11 C          59.9773   87.1736    7.8548 C.ar    1  UNL1        0.0032
     12 C          59.2830   87.9406    6.7685 C.ar    1  UNL1        0.0372
     13 C          59.2372   89.4390    6.8201 C.ar    1  UNL1        0.1468
     14 C          59.8856   90.1704    7.9579 C.ar    1  UNL1        0.0372
     15 C          60.5798   89.4035    9.0441 C.ar    1  UNL1        0.0032
     16 O          58.5429   90.2060    5.7340 O.3     1  UNL1       -0.4045
     17 C          59.1850   91.4306    5.1527 C.3     1  UNL1        0.5753
     18 F          59.8270   92.6554    4.5714 F       1  UNL1       -0.1328
     19 F          57.8625   92.1377    5.1816 F       1  UNL1       -0.1328
     20 F          60.5076   90.7235    5.1238 F       1  UNL1       -0.1328
     21 O          64.7912   83.3034   15.5096 O.3     1  UNL1       -0.3755
     22 C          64.0970   84.0703   14.4234 C.3     1  UNL1        0.1932
     23 H          64.1551   82.7179   15.9493 H       1  UNL1        0.2110
     24 C          63.6631   82.7814   13.7907 C.ar    1  UNL1        0.0368
     25 C          62.6747   81.8971   14.4916 C.ar    1  UNL1        0.0028
     26 C          62.2409   80.6082   13.8588 C.ar    1  UNL1        0.0295
     27 C          62.7955   80.2035   12.5252 C.ar    1  UNL1        0.1424
     28 F          62.3617   78.9145   11.8924 F       1  UNL1       -0.2041
     29 C          63.7838   81.0877   11.8243 C.ar    1  UNL1        0.0590
     30 C          64.2177   82.3767   12.4570 C.ar    1  UNL1        0.1408
     31 F          65.2060   83.2609   11.7561 F       1  UNL1       -0.2043
     32 C          64.5308   85.3593   15.0563 C.3     1  UNL1        0.1679
     33 N          63.5810   86.1222   15.9313 N.ar    1  UNL1       -0.2078
     34 C          62.5485   85.5262   16.8416 C.ar    1  UNL1        0.2216
     35 N          61.8262   86.6507   17.5226 N.ar    1  UNL1       -0.1048
     36 N          62.4124   87.9418   17.0330 N.ar    1  UNL1       -0.0226
     37 N          63.4968   87.6152   16.0496 N.ar    1  UNL1       -0.0428
@<TRIPOS>BOND
     1    22    21    1
     2    22    32    1
     3    32    33    1
     4    33    34   ar
     5    34    35   ar
     6    35    36   ar
     7    36    37   ar
     8    22    24    1
     9    24    25   ar
    10    25    26   ar
    11    26    27   ar
    12    27    28    1
    13    27    29   ar
    14    29    30   ar
    15    30    31    1
    16    22     1    1
    17     1     2    1
    18     1     3    1
    19     1     4    1
    20     4     5   ar
    21     5     6   ar
    22     6     7   ar
    23     7    10    1
    24    10    11   ar
    25    11    12   ar
    26    12    13   ar
    27    13    16    1
    28    16    17    1
    29    17    18    1
    30    17    19    1
    31    17    20    1
    32    13    14   ar
    33    14    15   ar
    34     7     8   ar
    35     8     9   ar
    36    37    33   ar
    37    30    24   ar
    38     9     4   ar
    39    15    10   ar
    40    21    23    1
@<TRIPOS>MOLECULE
*****
 37 40 0 0 0
SMALL
GASTEIGER

@<TRIPOS>ATOM
      1 C          61.5772   87.8010   10.5014 C.3     1  UNL1        0.3254
      2 F          60.5736   87.7695   11.6159 F       1  UNL1       -0.1949
      3 F          62.7629   88.0505    9.6173 F       1  UNL1       -0.1949
      4 C          62.4535   88.7057   11.3161 C.ar    1  UNL1        0.1218
      5 C          62.7234   90.1062   10.8516 C.ar    1  UNL1        0.0202
      6 C          63.5998   91.0108   11.6663 C.ar    1  UNL1        0.0029
      7 C          64.2061   90.5150   12.9455 C.ar    1  UNL1        0.0192
      8 C          63.9362   89.1144   13.4100 C.ar    1  UNL1        0.0986
      9 N          63.0599   88.2098   12.5954 N.ar    1  UNL1       -0.2427
     10 C          65.0824   91.4196   13.7602 C.ar    1  UNL1        0.0017
     11 C          65.9648   92.4226   13.0782 C.ar    1  UNL1        0.0032
     12 C          66.8412   93.3273   13.8929 C.ar    1  UNL1        0.0372
     13 C          66.8351   93.2288   15.3896 C.ar    1  UNL1        0.1468
     14 C          65.9527   92.2257   16.0717 C.ar    1  UNL1        0.0372
     15 C          65.0764   91.3211   15.2570 C.ar    1  UNL1        0.0032
     16 O          67.7114   94.1334   16.2043 O.3     1  UNL1       -0.4045
     17 C          69.1812   94.2129   15.9158 C.3     1  UNL1        0.5753
     18 F          70.6511   94.2924   15.6273 F       1  UNL1       -0.1328
     19 F          69.2361   92.7198   15.7839 F       1  UNL1       -0.1328
     20 F          69.1264   95.7062   16.0477 F       1  UNL1       -0.1328
     21 O          59.8245   85.9918    8.8722 O.3     1  UNL1       -0.3755
     22 C          60.7008   86.8964    9.6868 C.3     1  UNL1        0.1932
     23 H          60.3192   85.6694    8.1026 H       1  UNL1        0.2110
     24 C          61.7123   85.7968    9.8199 C.ar    1  UNL1        0.0368
     25 C          61.9980   85.1993   11.1658 C.ar    1  UNL1        0.0028
     26 C          63.0094   84.0997   11.2988 C.ar    1  UNL1        0.0295
     27 C          63.7353   83.5975   10.0860 C.ar    1  UNL1        0.1424
     28 F          64.7467   82.4979   10.2191 F       1  UNL1       -0.2041
     29 C          63.4496   84.1949    8.7401 C.ar    1  UNL1        0.0590
     30 C          62.4381   85.2946    8.6070 C.ar    1  UNL1        0.1408
     31 F          62.1525   85.8920    7.2611 F       1  UNL1       -0.2043
     32 C          59.6893   87.9960    9.5537 C.3     1  UNL1        0.1679
     33 N          59.5195   88.7042    8.2424 N.ar    1  UNL1       -0.2078
     34 C          60.2085   89.9707    7.8285 C.ar    1  UNL1        0.2216
     35 N          59.7457   90.3194    6.4450 N.ar    1  UNL1       -0.1048
     36 N          58.7705   89.2684    6.0038 N.ar    1  UNL1       -0.0226
     37 N          58.6307   88.2702    7.1147 N.ar    1  UNL1       -0.0428
@<TRIPOS>BOND
     1    22    21    1
     2    22    32    1
     3    32    33    1
     4    33    34   ar
     5    34    35   ar
     6    35    36   ar
     7    36    37   ar
     8    22    24    1
     9    24    25   ar
    10    25    26   ar
    11    26    27   ar
    12    27    28    1
    13    27    29   ar
    14    29    30   ar
    15    30    31    1
    16    22     1    1
    17     1     2    1
    18     1     3    1
    19     1     4    1
    20     4     5   ar
    21     5     6   ar
    22     6     7   ar
    23     7    10    1
    24    10    11   ar
    25    11    12   ar
    26    12    13   ar
    27    13    16    1
    28    16    17    1
    29    17    18    1
    30    17    19    1
    31    17    20    1
    32    13    14   ar
    33    14    15   ar
    34     7     8   ar
    35     8     9   ar
    36    37    33   ar
    37    30    24   ar
    38     9     4   ar
    39    15    10   ar
    40    21    23    1
@<TRIPOS>MOLECULE
*****
 37 40 0 0 0
SMALL
GASTEIGER

@<TRIPOS>ATOM
      1 C          63.4343   84.7551   13.0178 C.3     1  UNL1        0.3254
      2 F          64.6498   84.6876   12.1414 F       1  UNL1       -0.1949
      3 F          62.0795   85.0067   13.6104 F       1  UNL1       -0.1949
      4 C          62.7096   85.5244   11.9533 C.ar    1  UNL1        0.1218
      5 C          62.1581   84.8099   10.7553 C.ar    1  UNL1        0.0202
      6 C          61.4335   85.5792    9.6909 C.ar    1  UNL1        0.0029
      7 C          61.2603   87.0632    9.8245 C.ar    1  UNL1        0.0192
      8 C          61.8119   87.7778   11.0225 C.ar    1  UNL1        0.0986
      9 N          62.5365   87.0084   12.0869 N.ar    1  UNL1       -0.2427
     10 C          60.5357   87.8326    8.7601 C.ar    1  UNL1        0.0017
     11 C          59.8283   87.1026    7.6571 C.ar    1  UNL1        0.0032
     12 C          59.1036   87.8719    6.5927 C.ar    1  UNL1        0.0372
     13 C          59.0865   89.3713    6.6312 C.ar    1  UNL1        0.1468
     14 C          59.7940   90.1014    7.7342 C.ar    1  UNL1        0.0372
     15 C          60.5186   89.3320    8.7986 C.ar    1  UNL1        0.0032
     16 O          58.3619   90.1407    5.5668 O.3     1  UNL1       -0.4045
     17 C          58.8927   91.4659    5.1065 C.3     1  UNL1        0.5753
     18 F          59.4237   92.7912    4.6461 F       1  UNL1       -0.1328
     19 F          60.2799   90.8966    5.0672 F       1  UNL1       -0.1328
     20 F          57.5055   92.0353    5.1458 F       1  UNL1       -0.1328
     21 O          64.8836   83.2164   15.1465 O.3     1  UNL1       -0.3755
     22 C          64.1589   83.9857   14.0821 C.3     1  UNL1        0.1932
     23 H          65.5872   83.7684   15.5221 H       1  UNL1        0.2110
     24 C          63.8502   85.0675   15.0743 C.ar    1  UNL1        0.0368
     25 C          64.4933   86.4159   14.9381 C.ar    1  UNL1        0.0028
     26 C          64.1846   87.4977   15.9302 C.ar    1  UNL1        0.0295
     27 C          63.2328   87.2312   17.0585 C.ar    1  UNL1        0.1424
     28 F          62.9240   88.3130   18.0506 F       1  UNL1       -0.2041
     29 C          62.5896   85.8830   17.1947 C.ar    1  UNL1        0.0590
     30 C          62.8984   84.8011   16.2025 C.ar    1  UNL1        0.1408
     31 F          62.2552   83.4528   16.3387 F       1  UNL1       -0.2043
     32 C          64.4677   82.9038   13.0900 C.3     1  UNL1        0.1679
     33 N          63.6300   81.6601   13.0516 N.ar    1  UNL1       -0.2078
     34 C          63.1143   80.9823   11.8169 C.ar    1  UNL1        0.2216
     35 N          62.3266   79.7791   12.2433 N.ar    1  UNL1       -0.1048
     36 N          62.3555   79.7134   13.7416 N.ar    1  UNL1       -0.0226
     37 N          63.1611   80.8759   14.2411 N.ar    1  UNL1       -0.0428
@<TRIPOS>BOND
     1    22    21    1
     2    22    32    1
     3    32    33    1
     4    33    34   ar
     5    34    35   ar
     6    35    36   ar
     7    36    37   ar
     8    22    24    1
     9    24    25   ar
    10    25    26   ar
    11    26    27   ar
    12    27    28    1
    13    27    29   ar
    14    29    30   ar
    15    30    31    1
    16    22     1    1
    17     1     2    1
    18     1     3    1
    19     1     4    1
    20     4     5   ar
    21     5     6   ar
    22     6     7   ar
    23     7    10    1
    24    10    11   ar
    25    11    12   ar
    26    12    13   ar
    27    13    16    1
    28    16    17    1
    29    17    18    1
    30    17    19    1
    31    17    20    1
    32    13    14   ar
    33    14    15   ar
    34     7     8   ar
    35     8     9   ar
    36    37    33   ar
    37    30    24   ar
    38     9     4   ar
    39    15    10   ar
    40    21    23    1
@<TRIPOS>MOLECULE
*****
 37 40 0 0 0
SMALL
GASTEIGER

@<TRIPOS>ATOM
      1 C          61.9245   87.7595   10.4722 C.3     1  UNL1        0.3254
      2 F          62.4400   88.4477    9.2431 F       1  UNL1       -0.1949
      3 F          61.6265   87.3106   11.8721 F       1  UNL1       -0.1949
      4 C          62.7601   88.6638   11.3290 C.ar    1  UNL1        0.1218
      5 C          63.0948   90.0472   10.8555 C.ar    1  UNL1        0.0202
      6 C          63.9304   90.9515   11.7123 C.ar    1  UNL1        0.0029
      7 C          64.4312   90.4725   13.0426 C.ar    1  UNL1        0.0192
      8 C          64.0964   89.0891   13.5161 C.ar    1  UNL1        0.0986
      9 N          63.2608   88.1848   12.6594 N.ar    1  UNL1       -0.2427
     10 C          65.2667   91.3767   13.8994 C.ar    1  UNL1        0.0017
     11 C          66.3636   92.1925   13.2817 C.ar    1  UNL1        0.0032
     12 C          67.1992   93.0968   14.1385 C.ar    1  UNL1        0.0372
     13 C          66.9379   93.1853   15.6129 C.ar    1  UNL1        0.1468
     14 C          65.8410   92.3695   16.2306 C.ar    1  UNL1        0.0372
     15 C          65.0055   91.4653   15.3738 C.ar    1  UNL1        0.0032
     16 O          67.7735   94.0896   16.4697 O.3     1  UNL1       -0.4045
     17 C          69.2370   94.2518   16.1841 C.3     1  UNL1        0.5753
     18 F          70.7007   94.4140   15.8986 F       1  UNL1       -0.1328
     19 F          69.4152   92.7640   16.2522 F       1  UNL1       -0.1328
     20 F          69.0589   95.7397   16.1160 F       1  UNL1       -0.1328
     21 O          60.2534   85.9509    8.7587 O.3     1  UNL1       -0.3755
     22 C          61.0889   86.8552    9.6155 C.3     1  UNL1        0.1932
     23 H          60.8196   85.5093    8.1065 H       1  UNL1        0.2110
     24 C          61.9537   85.6916   10.0003 C.ar    1  UNL1        0.0368
     25 C          61.8439   85.0972   11.3732 C.ar    1  UNL1        0.0028
     26 C          62.7086   83.9336   11.7581 C.ar    1  UNL1        0.0295
     27 C          63.6832   83.3643   10.7701 C.ar    1  UNL1        0.1424
     28 F          64.5479   82.2006   11.1549 F       1  UNL1       -0.2041
     29 C          63.7930   83.9585    9.3972 C.ar    1  UNL1        0.0590
     30 C          62.9282   85.1222    9.0123 C.ar    1  UNL1        0.1408
     31 F          63.0380   85.7165    7.6395 F       1  UNL1       -0.2043
     32 C          60.2241   88.0189    9.2306 C.3     1  UNL1        0.1679
     33 N          59.7291   88.9659   10.2831 N.ar    1  UNL1       -0.2078
     34 C          59.1385   88.5818   11.6074 C.ar    1  UNL1        0.2216
     35 N          58.7821   89.8419   12.3390 N.ar    1  UNL1       -0.1048
     36 N          59.1525   91.0048   11.4668 N.ar    1  UNL1       -0.0226
     37 N          59.7378   90.4634   10.1963 N.ar    1  UNL1       -0.0428
@<TRIPOS>BOND
     1    22    21    1
     2    22    32    1
     3    32    33    1
     4    33    34   ar
     5    34    35   ar
     6    35    36   ar
     7    36    37   ar
     8    22    24    1
     9    24    25   ar
    10    25    26   ar
    11    26    27   ar
    12    27    28    1
    13    27    29   ar
    14    29    30   ar
    15    30    31    1
    16    22     1    1
    17     1     2    1
    18     1     3    1
    19     1     4    1
    20     4     5   ar
    21     5     6   ar
    22     6     7   ar
    23     7    10    1
    24    10    11   ar
    25    11    12   ar
    26    12    13   ar
    27    13    16    1
    28    16    17    1
    29    17    18    1
    30    17    19    1
    31    17    20    1
    32    13    14   ar
    33    14    15   ar
    34     7     8   ar
    35     8     9   ar
    36    37    33   ar
    37    30    24   ar
    38     9     4   ar
    39    15    10   ar
    40    21    23    1
