@<TRIPOS>MOLECULE
*****
 27 30 0 0 0
SMALL
GASTEIGER

@<TRIPOS>ATOM
      1 C          63.7856   90.0408   13.4496 C.3     1  UNL1        0.2068
      2 C          63.0694   85.2676   12.3251 C.3     1  UNL1        0.0061
      3 C          62.3683   86.1962   11.3784 C.3     1  UNL1        0.0387
      4 C          61.9166   84.9279   10.7171 C.3     1  UNL1        0.0061
      5 C          62.9665   87.2704   12.2375 C.3     1  UNL1        0.1022
      6 N          62.5408   88.5978   11.6836 N.am    1  UNL1       -0.2581
      7 C          62.9113   89.9429   12.2345 C.2     1  UNL1        0.2419
      8 O          62.4078   91.1900   11.5705 O.2     1  UNL1       -0.2739
      9 C          61.6794   88.3440   10.4821 C.ar    1  UNL1        0.0499
     10 C          60.9784   89.2726    9.5355 C.ar    1  UNL1        0.0146
     11 C          60.1707   88.7170    8.4002 C.ar    1  UNL1        0.0013
     12 C          60.0641   87.2327    8.2115 C.ar    1  UNL1       -0.0002
     13 C          60.7652   86.3041    9.1581 C.ar    1  UNL1       -0.0030
     14 C          61.5728   86.8597   10.2934 C.ar    1  UNL1       -0.0075
     15 C          64.7240   91.2004   13.6068 C.2     1  UNL1        0.3580
     16 N          65.1444   91.9932   12.4048 N.2     1  UNL1       -0.0039
     17 C          66.0828   93.1528   12.5621 C.2     1  UNL1        0.3159
     18 C          66.6009   93.5195   13.9212 C.3     1  UNL1        0.2333
     19 C          66.1805   92.7266   15.1231 C.2     1  UNL1        0.3644
     20 O          66.6985   93.0933   16.4822 O.2     1  UNL1       -0.2422
     21 N          65.2420   91.5671   14.9659 N.am    1  UNL1        0.0289
     22 N          66.5033   93.9457   11.3601 N.pl3   1  UNL1       -0.1888
     23 C          67.1665   93.2590   10.2031 C.3     1  UNL1        0.2343
     24 C          67.5869   94.0518    9.0012 C.3     1  UNL1        0.1929
     25 O          67.3442   95.5314    8.9563 O.3     1  UNL1       -0.3449
     26 C          66.6810   96.2180   10.1133 C.3     1  UNL1        0.1929
     27 C          66.2606   95.4252   11.3152 C.3     1  UNL1        0.2343
@<TRIPOS>BOND
     1     2     3    1
     2     3     4    1
     3     3     5    1
     4     5     6    1
     5     6     7   am
     6     7     8    2
     7     7     1    1
     8     1    15    1
     9    15    16    1
    10    16    17    2
    11    17    22    1
    12    22    23    1
    13    23    24    1
    14    24    25    1
    15    25    26    1
    16    26    27    1
    17    17    18    1
    18    18    19    1
    19    19    20    2
    20    19    21    1
    21     6     9    1
    22     9    10   ar
    23    10    11   ar
    24    11    12   ar
    25    12    13   ar
    26    13    14   ar
    27    14     3    1
    28    21    15    2
    29    14     9   ar
    30    27    22    1
@<TRIPOS>MOLECULE
*****
 27 30 0 0 0
SMALL
GASTEIGER

@<TRIPOS>ATOM
      1 C          61.5595   88.7572   11.0469 C.3     1  UNL1        0.2068
      2 C          64.0677   89.7537   15.2034 C.3     1  UNL1        0.0061
      3 C          64.4287   90.6742   14.0753 C.3     1  UNL1        0.0387
      4 C          65.3593   91.2856   15.0805 C.3     1  UNL1        0.0061
      5 C          63.4227   89.8704   13.3061 C.3     1  UNL1        0.1022
      6 N          63.3566   90.4219   11.9127 N.am    1  UNL1       -0.2581
      7 C          62.4793   89.9173   10.8055 C.2     1  UNL1        0.2419
      8 O          62.5217   90.5727    9.4570 O.2     1  UNL1       -0.2739
      9 C          64.3216   91.5665   11.8208 C.ar    1  UNL1        0.0499
     10 C          64.6826   92.4869   10.6928 C.ar    1  UNL1        0.0146
     11 C          65.7063   93.5632   10.9014 C.ar    1  UNL1        0.0013
     12 C          66.3690   93.7192   12.2380 C.ar    1  UNL1       -0.0002
     13 C          66.0080   92.7988   13.3660 C.ar    1  UNL1       -0.0030
     14 C          64.9843   91.7224   13.1574 C.ar    1  UNL1       -0.0075
     15 C          62.0223   87.3601   10.7569 C.2     1  UNL1        0.3580
     16 N          62.3172   86.4182   11.8865 N.2     1  UNL1       -0.0039
     17 C          62.7801   85.0212   11.5965 C.2     1  UNL1        0.3159
     18 C          62.9480   84.5661   10.1771 C.3     1  UNL1        0.2333
     19 C          62.6532   85.5080    9.0476 C.2     1  UNL1        0.3644
     20 O          62.8212   85.0529    7.6282 O.2     1  UNL1       -0.2422
     21 N          62.1903   86.9050    9.3376 N.am    1  UNL1        0.0289
     22 N          63.0749   84.0792   12.7261 N.pl3   1  UNL1       -0.1888
     23 C          63.6393   84.6044   14.0128 C.3     1  UNL1        0.2343
     24 C          63.9342   83.6625   15.1423 C.3     1  UNL1        0.1929
     25 O          63.6647   82.1953   14.9851 O.3     1  UNL1       -0.3449
     26 C          63.1003   81.6701   13.6984 C.3     1  UNL1        0.1929
     27 C          62.8054   82.6120   12.5688 C.3     1  UNL1        0.2343
@<TRIPOS>BOND
     1     2     3    1
     2     3     4    1
     3     3     5    1
     4     5     6    1
     5     6     7   am
     6     7     8    2
     7     7     1    1
     8     1    15    1
     9    15    16    1
    10    16    17    2
    11    17    22    1
    12    22    23    1
    13    23    24    1
    14    24    25    1
    15    25    26    1
    16    26    27    1
    17    17    18    1
    18    18    19    1
    19    19    20    2
    20    19    21    1
    21     6     9    1
    22     9    10   ar
    23    10    11   ar
    24    11    12   ar
    25    12    13   ar
    26    13    14   ar
    27    14     3    1
    28    21    15    2
    29    14     9   ar
    30    27    22    1
@<TRIPOS>MOLECULE
*****
 27 30 0 0 0
SMALL
GASTEIGER

@<TRIPOS>ATOM
      1 C          63.3875   90.4357   13.1820 C.3     1  UNL1        0.2068
      2 C          61.3180   87.6747    9.6246 C.3     1  UNL1        0.0061
      3 C          62.0226   86.8498   10.6605 C.3     1  UNL1        0.0387
      4 C          61.5666   85.6926    9.8222 C.3     1  UNL1        0.0061
      5 C          62.3313   88.1795   11.2823 C.3     1  UNL1        0.1022
      6 N          63.1313   87.9345   12.5272 N.am    1  UNL1       -0.2581
      7 C          63.6538   88.9860   13.4607 C.2     1  UNL1        0.2419
      8 O          64.4427   88.5880   14.6727 O.2     1  UNL1       -0.2739
      9 C          63.3170   86.4534   12.6749 C.ar    1  UNL1        0.0499
     10 C          64.0216   85.6286   13.7109 C.ar    1  UNL1        0.0146
     11 C          64.0409   84.1334   13.5931 C.ar    1  UNL1        0.0013
     12 C          63.3557   83.4630   12.4394 C.ar    1  UNL1       -0.0002
     13 C          62.6512   84.2878   11.4035 C.ar    1  UNL1       -0.0030
     14 C          62.6318   85.7830   11.5212 C.ar    1  UNL1       -0.0075
     15 C          64.4708   91.4514   13.3934 C.2     1  UNL1        0.3580
     16 N          64.9804   92.2564   12.2349 N.2     1  UNL1       -0.0039
     17 C          66.0638   93.2722   12.4463 C.2     1  UNL1        0.3159
     18 C          66.6374   93.4828   13.8161 C.3     1  UNL1        0.2333
     19 C          66.1278   92.6778   14.9746 C.2     1  UNL1        0.3644
     20 O          66.7015   92.8885   16.3445 O.2     1  UNL1       -0.2422
     21 N          65.0445   91.6621   14.7633 N.am    1  UNL1        0.0289
     22 N          66.5735   94.0773   11.2877 N.pl3   1  UNL1       -0.1888
     23 C          67.2824   93.3959   10.1550 C.3     1  UNL1        0.2343
     24 C          67.7921   94.2009    8.9965 C.3     1  UNL1        0.1929
     25 O          67.5928   95.6873    8.9708 O.3     1  UNL1       -0.3449
     26 C          66.8839   96.3688   10.1035 C.3     1  UNL1        0.1929
     27 C          66.3742   95.5638   11.2620 C.3     1  UNL1        0.2343
@<TRIPOS>BOND
     1     2     3    1
     2     3     4    1
     3     3     5    1
     4     5     6    1
     5     6     7   am
     6     7     8    2
     7     7     1    1
     8     1    15    1
     9    15    16    1
    10    16    17    2
    11    17    22    1
    12    22    23    1
    13    23    24    1
    14    24    25    1
    15    25    26    1
    16    26    27    1
    17    17    18    1
    18    18    19    1
    19    19    20    2
    20    19    21    1
    21     6     9    1
    22     9    10   ar
    23    10    11   ar
    24    11    12   ar
    25    12    13   ar
    26    13    14   ar
    27    14     3    1
    28    21    15    2
    29    14     9   ar
    30    27    22    1
@<TRIPOS>MOLECULE
*****
 27 30 0 0 0
SMALL
GASTEIGER

@<TRIPOS>ATOM
      1 C          62.2626   89.5398   11.5603 C.3     1  UNL1        0.2068
      2 C          65.3530   93.1334   10.1125 C.3     1  UNL1        0.0061
      3 C          65.4645   92.8302   11.5774 C.3     1  UNL1        0.0387
      4 C          66.5074   93.9082   11.5606 C.3     1  UNL1        0.0061
      5 C          64.3984   91.8156   11.2879 C.3     1  UNL1        0.1022
      6 N          64.0690   91.1106   12.5702 N.am    1  UNL1       -0.2581
      7 C          63.0550   90.0185   12.7407 C.2     1  UNL1        0.2419
      8 O          62.8333   89.4049   14.0913 O.2     1  UNL1       -0.2739
      9 C          64.9315   91.6896   13.6523 C.ar    1  UNL1        0.0499
     10 C          65.0430   91.3863   15.1171 C.ar    1  UNL1        0.0146
     11 C          66.0170   92.1458   15.9682 C.ar    1  UNL1        0.0013
     12 C          66.8795   93.2086   15.3545 C.ar    1  UNL1       -0.0002
     13 C          66.7681   93.5118   13.8897 C.ar    1  UNL1       -0.0030
     14 C          65.7941   92.7523   13.0386 C.ar    1  UNL1       -0.0075
     15 C          62.2873   88.0893   11.1788 C.2     1  UNL1        0.3580
     16 N          62.6772   87.0540   12.1917 N.2     1  UNL1       -0.0039
     17 C          62.7019   85.6035   11.8102 C.2     1  UNL1        0.3159
     18 C          62.3368   85.1885   10.4158 C.3     1  UNL1        0.2333
     19 C          61.9469   86.2238    9.4029 C.2     1  UNL1        0.3644
     20 O          61.5818   85.8088    8.0084 O.2     1  UNL1       -0.2422
     21 N          61.9222   87.6743    9.7844 N.am    1  UNL1        0.0289
     22 N          63.0917   84.5681   12.8232 N.pl3   1  UNL1       -0.1888
     23 C          63.4700   84.9843   14.2137 C.3     1  UNL1        0.2343
     24 C          63.8599   83.9490   15.2266 C.3     1  UNL1        0.1929
     25 O          63.8714   82.4974   14.8490 O.3     1  UNL1       -0.3449
     26 C          63.4932   82.0811   13.4584 C.3     1  UNL1        0.1929
     27 C          63.1033   83.1165   12.4455 C.3     1  UNL1        0.2343
@<TRIPOS>BOND
     1     2     3    1
     2     3     4    1
     3     3     5    1
     4     5     6    1
     5     6     7   am
     6     7     8    2
     7     7     1    1
     8     1    15    1
     9    15    16    1
    10    16    17    2
    11    17    22    1
    12    22    23    1
    13    23    24    1
    14    24    25    1
    15    25    26    1
    16    26    27    1
    17    17    18    1
    18    18    19    1
    19    19    20    2
    20    19    21    1
    21     6     9    1
    22     9    10   ar
    23    10    11   ar
    24    11    12   ar
    25    12    13   ar
    26    13    14   ar
    27    14     3    1
    28    21    15    2
    29    14     9   ar
    30    27    22    1
@<TRIPOS>MOLECULE
*****
 27 30 0 0 0
SMALL
GASTEIGER

@<TRIPOS>ATOM
      1 C          64.3285   86.4424   14.1674 C.3     1  UNL1        0.2068
      2 C          64.7551   83.3762   10.2974 C.3     1  UNL1        0.0061
      3 C          63.9015   82.8093   11.3929 C.3     1  UNL1        0.0387
      4 C          63.7752   81.6328   10.4711 C.3     1  UNL1        0.0061
      5 C          64.2063   84.1044   12.0856 C.3     1  UNL1        0.1022
      6 N          63.5146   84.0921   13.4166 N.am    1  UNL1       -0.2581
      7 C          63.5492   85.1897   14.4384 C.2     1  UNL1        0.2419
      8 O          62.8044   85.0347   15.7311 O.2     1  UNL1       -0.2739
      9 C          62.7824   82.7894   13.5465 C.ar    1  UNL1        0.0499
     10 C          61.9289   82.2226   14.6420 C.ar    1  UNL1        0.0146
     11 C          61.3144   80.8631   14.4868 C.ar    1  UNL1        0.0013
     12 C          61.5535   80.0704   13.2360 C.ar    1  UNL1       -0.0002
     13 C          62.4071   80.6371   12.1405 C.ar    1  UNL1       -0.0030
     14 C          63.0215   81.9966   12.2957 C.ar    1  UNL1       -0.0075
     15 C          63.7141   87.5485   13.3617 C.2     1  UNL1        0.3580
     16 N          62.8610   87.2244   12.1713 N.2     1  UNL1       -0.0039
     17 C          62.2465   88.3304   11.3656 C.2     1  UNL1        0.3159
     18 C          62.4853   89.7605   11.7503 C.3     1  UNL1        0.2333
     19 C          63.3384   90.0845   12.9407 C.2     1  UNL1        0.3644
     20 O          63.5771   91.5146   13.3254 O.2     1  UNL1       -0.2422
     21 N          63.9528   88.9785   13.7464 N.am    1  UNL1        0.0289
     22 N          61.3933   88.0064   10.1751 N.pl3   1  UNL1       -0.1888
     23 C          61.2429   86.5834    9.7252 C.3     1  UNL1        0.2343
     24 C          60.3898   86.2593    8.5348 C.3     1  UNL1        0.1929
     25 O          59.6870   87.3583    7.7943 O.3     1  UNL1       -0.3449
     26 C          59.8375   88.7813    8.2442 C.3     1  UNL1        0.1929
     27 C          60.6906   89.1054    9.4345 C.3     1  UNL1        0.2343
@<TRIPOS>BOND
     1     2     3    1
     2     3     4    1
     3     3     5    1
     4     5     6    1
     5     6     7   am
     6     7     8    2
     7     7     1    1
     8     1    15    1
     9    15    16    1
    10    16    17    2
    11    17    22    1
    12    22    23    1
    13    23    24    1
    14    24    25    1
    15    25    26    1
    16    26    27    1
    17    17    18    1
    18    18    19    1
    19    19    20    2
    20    19    21    1
    21     6     9    1
    22     9    10   ar
    23    10    11   ar
    24    11    12   ar
    25    12    13   ar
    26    13    14   ar
    27    14     3    1
    28    21    15    2
    29    14     9   ar
    30    27    22    1
@<TRIPOS>MOLECULE
*****
 27 30 0 0 0
SMALL
GASTEIGER

@<TRIPOS>ATOM
      1 C          63.8011   85.3876   13.1092 C.3     1  UNL1        0.2068
      2 C          63.1371   90.1262   11.8185 C.3     1  UNL1        0.0061
      3 C          62.3247   89.1804   10.9845 C.3     1  UNL1        0.0387
      4 C          61.8554   90.4320   10.3041 C.3     1  UNL1        0.0061
      5 C          62.9638   88.1264   11.8393 C.3     1  UNL1        0.1022
      6 N          62.4483   86.7909   11.3913 N.am    1  UNL1       -0.2581
      7 C          62.8244   85.4604   11.9729 C.2     1  UNL1        0.2419
      8 O          62.2241   84.2027   11.4184 O.2     1  UNL1       -0.2739
      9 C          61.4905   87.0194   10.2597 C.ar    1  UNL1        0.0499
     10 C          60.6782   86.0736    9.4258 C.ar    1  UNL1        0.0146
     11 C          59.7894   86.6046    8.3405 C.ar    1  UNL1        0.0013
     12 C          59.7130   88.0814    8.0890 C.ar    1  UNL1       -0.0002
     13 C          60.5254   89.0272    8.9229 C.ar    1  UNL1       -0.0030
     14 C          61.4141   88.4962   10.0083 C.ar    1  UNL1       -0.0075
     15 C          63.6086   86.2516   14.3201 C.2     1  UNL1        0.3580
     16 N          64.0732   87.6777   14.3054 N.2     1  UNL1       -0.0039
     17 C          63.8807   88.5417   15.5164 C.2     1  UNL1        0.3159
     18 C          63.2236   87.9795   16.7420 C.3     1  UNL1        0.2333
     19 C          62.7590   86.5534   16.7568 C.2     1  UNL1        0.3644
     20 O          62.1019   85.9913   17.9824 O.2     1  UNL1       -0.2422
     21 N          62.9515   85.6894   15.5458 N.am    1  UNL1        0.0289
     22 N          64.3453   89.9679   15.5017 N.pl3   1  UNL1       -0.1888
     23 C          63.8337   90.9340   16.5288 C.3     1  UNL1        0.2343
     24 C          64.2982   92.3601   16.5142 C.3     1  UNL1        0.1929
     25 O          65.2744   92.8202   15.4724 O.3     1  UNL1       -0.3449
     26 C          65.7860   91.8542   14.4453 C.3     1  UNL1        0.1929
     27 C          65.3215   90.4280   14.4599 C.3     1  UNL1        0.2343
@<TRIPOS>BOND
     1     2     3    1
     2     3     4    1
     3     3     5    1
     4     5     6    1
     5     6     7   am
     6     7     8    2
     7     7     1    1
     8     1    15    1
     9    15    16    1
    10    16    17    2
    11    17    22    1
    12    22    23    1
    13    23    24    1
    14    24    25    1
    15    25    26    1
    16    26    27    1
    17    17    18    1
    18    18    19    1
    19    19    20    2
    20    19    21    1
    21     6     9    1
    22     9    10   ar
    23    10    11   ar
    24    11    12   ar
    25    12    13   ar
    26    13    14   ar
    27    14     3    1
    28    21    15    2
    29    14     9   ar
    30    27    22    1
@<TRIPOS>MOLECULE
*****
 27 30 0 0 0
SMALL
GASTEIGER

@<TRIPOS>ATOM
      1 C          64.5289   86.2261   14.9537 C.3     1  UNL1        0.2068
      2 C          64.9851   83.6482   10.7457 C.3     1  UNL1        0.0061
      3 C          64.0234   83.0176   11.7088 C.3     1  UNL1        0.0387
      4 C          63.8731   81.9805   10.6356 C.3     1  UNL1        0.0061
      5 C          64.3747   84.1866   12.5807 C.3     1  UNL1        0.1022
      6 N          63.5988   84.0616   13.8583 N.am    1  UNL1       -0.2581
      7 C          63.6455   85.0153   15.0151 C.2     1  UNL1        0.2419
      8 O          62.8089   84.7584   16.2332 O.2     1  UNL1       -0.2739
      9 C          62.7679   82.8154   13.7760 C.ar    1  UNL1        0.0499
     10 C          61.8063   82.1849   14.7391 C.ar    1  UNL1        0.0146
     11 C          61.1071   80.9091   14.3738 C.ar    1  UNL1        0.0013
     12 C          61.3696   80.2639   13.0453 C.ar    1  UNL1       -0.0002
     13 C          62.3312   80.8944   12.0822 C.ar    1  UNL1       -0.0030
     14 C          63.0304   82.1702   12.4476 C.ar    1  UNL1       -0.0075
     15 C          64.1558   87.3829   14.0746 C.2     1  UNL1        0.3580
     16 N          64.7795   88.7282   14.3007 N.2     1  UNL1       -0.0039
     17 C          64.4064   89.8850   13.4216 C.2     1  UNL1        0.3159
     18 C          63.4097   89.6964   12.3166 C.3     1  UNL1        0.2333
     19 C          62.7861   88.3511   12.0906 C.2     1  UNL1        0.3644
     20 O          61.7894   88.1625   10.9856 O.2     1  UNL1       -0.2422
     21 N          63.1591   87.1943   12.9696 N.am    1  UNL1        0.0289
     22 N          65.0301   91.2304   13.6476 N.pl3   1  UNL1       -0.1888
     23 C          65.4568   91.6372   15.0269 C.3     1  UNL1        0.2343
     24 C          66.0804   92.9825   15.2529 C.3     1  UNL1        0.1929
     25 O          66.2774   93.9211   14.0996 O.3     1  UNL1       -0.3449
     26 C          65.8507   93.5144   12.7203 C.3     1  UNL1        0.1929
     27 C          65.2271   92.1690   12.4942 C.3     1  UNL1        0.2343
@<TRIPOS>BOND
     1     2     3    1
     2     3     4    1
     3     3     5    1
     4     5     6    1
     5     6     7   am
     6     7     8    2
     7     7     1    1
     8     1    15    1
     9    15    16    1
    10    16    17    2
    11    17    22    1
    12    22    23    1
    13    23    24    1
    14    24    25    1
    15    25    26    1
    16    26    27    1
    17    17    18    1
    18    18    19    1
    19    19    20    2
    20    19    21    1
    21     6     9    1
    22     9    10   ar
    23    10    11   ar
    24    11    12   ar
    25    12    13   ar
    26    13    14   ar
    27    14     3    1
    28    21    15    2
    29    14     9   ar
    30    27    22    1
@<TRIPOS>MOLECULE
*****
 27 30 0 0 0
SMALL
GASTEIGER

@<TRIPOS>ATOM
      1 C          62.5773   91.1228   11.2750 C.3     1  UNL1        0.2068
      2 C          64.4303   88.4381   15.0060 C.3     1  UNL1        0.0061
      3 C          63.8951   87.5880   13.8919 C.3     1  UNL1        0.0387
      4 C          64.3331   86.4478   14.7626 C.3     1  UNL1        0.0061
      5 C          63.5689   88.9059   13.2542 C.3     1  UNL1        0.1022
      6 N          62.9237   88.6320   11.9281 N.am    1  UNL1       -0.2581
      7 C          62.4366   89.6641   10.9546 C.2     1  UNL1        0.2419
      8 O          61.8088   89.2377    9.6609 O.2     1  UNL1       -0.2739
      9 C          62.8510   87.1449   11.7462 C.ar    1  UNL1        0.0499
     10 C          62.3158   86.2949   10.6323 C.ar    1  UNL1        0.0146
     11 C          62.3809   84.7997   10.7320 C.ar    1  UNL1        0.0013
     12 C          62.9812   84.1544   11.9458 C.ar    1  UNL1       -0.0002
     13 C          63.5165   85.0044   13.0598 C.ar    1  UNL1       -0.0030
     14 C          63.4514   86.4996   12.9600 C.ar    1  UNL1       -0.0075
     15 C          63.9403   91.7419   11.3692 C.2     1  UNL1        0.3580
     16 N          64.6736   91.7455   12.6778 N.2     1  UNL1       -0.0039
     17 C          66.0366   92.3646   12.7720 C.2     1  UNL1        0.3159
     18 C          66.6663   92.9801   11.5577 C.3     1  UNL1        0.2333
     19 C          65.9331   92.9765   10.2491 C.2     1  UNL1        0.3644
     20 O          66.5628   93.5920    9.0348 O.2     1  UNL1       -0.2422
     21 N          64.5701   92.3574   10.1549 N.am    1  UNL1        0.0289
     22 N          66.7699   92.3682   14.0806 N.pl3   1  UNL1       -0.1888
     23 C          66.0154   92.5608   15.3626 C.3     1  UNL1        0.2343
     24 C          66.7486   92.5644   16.6712 C.3     1  UNL1        0.1929
     25 O          68.2364   92.3754   16.6977 O.3     1  UNL1       -0.3449
     26 C          68.9909   92.1828   15.4156 C.3     1  UNL1        0.1929
     27 C          68.2577   92.1791   14.1071 C.3     1  UNL1        0.2343
@<TRIPOS>BOND
     1     2     3    1
     2     3     4    1
     3     3     5    1
     4     5     6    1
     5     6     7   am
     6     7     8    2
     7     7     1    1
     8     1    15    1
     9    15    16    1
    10    16    17    2
    11    17    22    1
    12    22    23    1
    13    23    24    1
    14    24    25    1
    15    25    26    1
    16    26    27    1
    17    17    18    1
    18    18    19    1
    19    19    20    2
    20    19    21    1
    21     6     9    1
    22     9    10   ar
    23    10    11   ar
    24    11    12   ar
    25    12    13   ar
    26    13    14   ar
    27    14     3    1
    28    21    15    2
    29    14     9   ar
    30    27    22    1
