@<TRIPOS>MOLECULE
*****
 40 46 0 0 0
SMALL
GASTEIGER

@<TRIPOS>ATOM
      1 N          59.2907   92.7154    1.9200 N.pl3   1  UNL1       -0.2543
      2 C          58.1721   92.3735    0.9810 C.3     1  UNL1        0.1203
      3 C          58.0341   93.1075   -0.3199 C.3     1  UNL1        0.1216
      4 N          59.0146   94.1834   -0.6817 N.am    1  UNL1       -0.2403
      5 C          58.8765   94.9174   -1.9825 C.2     1  UNL1        0.3078
      6 O          59.8571   95.9934   -2.3443 O.2     1  UNL1       -0.2522
      7 N          57.7580   94.5754   -2.9216 N.am    1  UNL1       -0.2901
      8 C          60.1332   94.5254    0.2574 C.ar    1  UNL1        0.0690
      9 C          61.1137   95.6013   -0.1044 C.ar    1  UNL1        0.0162
     10 C          62.2323   95.9433    0.8347 C.ar    1  UNL1        0.0014
     11 C          62.3703   95.2093    2.1355 C.ar    1  UNL1        0.0014
     12 C          61.3898   94.1334    2.4973 C.ar    1  UNL1        0.0162
     13 C          60.2712   93.7914    1.5583 C.ar    1  UNL1        0.0678
     14 H          57.1144   93.8693   -2.6841 H       1  UNL1        0.1509
     15 C          57.6199   95.3094   -4.2224 C.3     1  UNL1        0.0731
     16 C          56.2846   95.3877   -4.9014 C.3     1  UNL1        0.0204
     17 C          57.4819   96.0434   -5.5233 C.3     1  UNL1        0.0018
     18 C          57.3439   96.7774   -6.8241 C.3     1  UNL1        0.0024
     19 C          58.6791   96.6991   -6.1452 C.3     1  UNL1        0.0018
     20 C          58.8171   95.9651   -4.8443 C.3     1  UNL1        0.0204
     21 C          56.2735   96.5333   -6.8482 C.3     1  UNL1        0.0285
     22 C          54.8114   96.1999   -6.8812 C.3     1  UNL1        0.0884
     23 O          53.4762   96.2782   -7.5602 O.3     1  UNL1       -0.3867
     24 C          56.0085   96.8556   -7.5031 C.3     1  UNL1        0.0269
     25 C          54.9494   95.4659   -5.5803 C.3     1  UNL1        0.0285
     26 H          53.5612   96.7843   -8.3833 H       1  UNL1        0.2102
     27 C          59.7048   90.5135    5.8226 C.ar    1  UNL1        0.0384
     28 C          58.3615   91.0171    5.3845 C.ar    1  UNL1        0.1033
     29 N          58.2235   91.7510    4.0836 N.ar    1  UNL1       -0.2118
     30 C          59.4287   91.9815    3.2209 C.ar    1  UNL1        0.2241
     31 N          60.7721   91.4779    3.6590 N.ar    1  UNL1       -0.2118
     32 C          60.9101   90.7439    4.9599 C.ar    1  UNL1        0.1033
     33 C          60.1189   88.3115    9.7252 C.ar    1  UNL1        0.1387
     34 C          59.3536   87.6934    8.5928 C.ar    1  UNL1        0.0369
     35 C          59.2155   88.4274    7.2919 C.ar    1  UNL1        0.0032
     36 C          59.8428   89.7795    7.1235 C.ar    1  UNL1        0.0032
     37 C          60.6082   90.3976    8.2558 C.ar    1  UNL1        0.0032
     38 C          60.7462   89.6636    9.5566 C.ar    1  UNL1        0.0369
     39 C          61.3052   86.5157   11.1805 C.3     1  UNL1        0.2525
     40 O          60.2570   87.5776   11.0260 O.3     1  UNL1       -0.4714
@<TRIPOS>BOND
     1    39    40    1
     2    40    33    1
     3    33    34   ar
     4    34    35   ar
     5    35    36   ar
     6    36    27    1
     7    27    28   ar
     8    28    29   ar
     9    29    30   ar
    10    30     1    1
    11     1     2    1
    12     2     3    1
    13     3     4    1
    14     4     5   am
    15     5     6    2
    16     5     7   am
    17    15     7    1
    18    15    16    1
    19    16    17    1
    20    17    18    1
    21    18    19    1
    22    19    20    1
    23    20    21    1
    24    21    22    1
    25    22    23    1
    26    22    24    1
    27    22    25    1
    28     4     8    1
    29     8     9   ar
    30     9    10   ar
    31    10    11   ar
    32    11    12   ar
    33    12    13   ar
    34    30    31   ar
    35    31    32   ar
    36    36    37   ar
    37    37    38   ar
    38    38    33   ar
    39    32    27   ar
    40    13     1    1
    41    20    15    1
    42    13     8   ar
    43    25    16    1
    44    24    18    1
    45     7    14    1
    46    23    26    1
@<TRIPOS>MOLECULE
*****
 40 46 0 0 0
SMALL
GASTEIGER

@<TRIPOS>ATOM
      1 N          60.1675   92.4942    2.1053 N.pl3   1  UNL1       -0.2543
      2 C          58.9123   92.7246    1.3170 C.3     1  UNL1        0.1203
      3 C          58.9803   93.3979   -0.0217 C.3     1  UNL1        0.1216
      4 N          60.3034   93.8407   -0.5721 N.am    1  UNL1       -0.2403
      5 C          60.3714   94.5140   -1.9108 C.2     1  UNL1        0.3078
      6 O          61.6947   94.9569   -2.4612 O.2     1  UNL1       -0.2522
      7 N          59.1162   94.7444   -2.6991 N.am    1  UNL1       -0.2901
      8 C          61.5587   93.6104    0.2162 C.ar    1  UNL1        0.0690
      9 C          62.8819   94.0532   -0.3343 C.ar    1  UNL1        0.0162
     10 C          64.1371   93.8229    0.4540 C.ar    1  UNL1        0.0014
     11 C          64.0691   93.1496    1.7927 C.ar    1  UNL1        0.0014
     12 C          62.7459   92.7067    2.3431 C.ar    1  UNL1        0.0162
     13 C          61.4907   92.9371    1.5548 C.ar    1  UNL1        0.0678
     14 H          58.2478   94.4537   -2.3378 H       1  UNL1        0.1509
     15 C          59.1842   95.4176   -4.0377 C.3     1  UNL1        0.0731
     16 C          60.4925   95.5086   -4.7659 C.3     1  UNL1        0.0204
     17 C          59.2522   96.0909   -5.3764 C.3     1  UNL1        0.0018
     18 C          59.3202   96.7641   -6.7151 C.3     1  UNL1        0.0024
     19 C          58.0120   96.6732   -5.9870 C.3     1  UNL1        0.0018
     20 C          57.9440   95.9999   -4.6483 C.3     1  UNL1        0.0204
     21 C          60.3973   96.5565   -6.7649 C.3     1  UNL1        0.0285
     22 C          61.8687   96.2728   -6.8328 C.3     1  UNL1        0.0884
     23 O          63.1769   96.3638   -7.5610 O.3     1  UNL1       -0.3867
     24 C          60.6285   96.8551   -7.4433 C.3     1  UNL1        0.0269
     25 C          61.8007   95.5996   -5.4941 C.3     1  UNL1        0.0285
     26 H          63.0462   96.8254   -8.4041 H       1  UNL1        0.2102
     27 C          59.9635   90.4744    6.1214 C.ar    1  UNL1        0.0384
     28 C          58.7330   91.0974    5.5318 C.ar    1  UNL1        0.1033
     29 N          58.8010   91.7707    4.1931 N.ar    1  UNL1       -0.2118
     30 C          60.0995   91.8210    3.4440 C.ar    1  UNL1        0.2241
     31 N          61.3301   91.1979    4.0335 N.ar    1  UNL1       -0.2118
     32 C          61.2621   90.5247    5.3722 C.ar    1  UNL1        0.1033
     33 C          59.7596   88.4547   10.1374 C.ar    1  UNL1        0.1387
     34 C          60.3571   89.8253   10.0167 C.ar    1  UNL1        0.0369
     35 C          60.4251   90.4985    8.6780 C.ar    1  UNL1        0.0032
     36 C          59.8955   89.8012    7.4601 C.ar    1  UNL1        0.0032
     37 C          59.2981   88.4306    7.5808 C.ar    1  UNL1        0.0032
     38 C          59.2301   87.7574    8.9195 C.ar    1  UNL1        0.0369
     39 C          59.1183   88.5114   12.6545 C.3     1  UNL1        0.2525
     40 O          59.6916   87.7814   11.4761 O.3     1  UNL1       -0.4714
@<TRIPOS>BOND
     1    39    40    1
     2    40    33    1
     3    33    34   ar
     4    34    35   ar
     5    35    36   ar
     6    36    27    1
     7    27    28   ar
     8    28    29   ar
     9    29    30   ar
    10    30     1    1
    11     1     2    1
    12     2     3    1
    13     3     4    1
    14     4     5   am
    15     5     6    2
    16     5     7   am
    17    15     7    1
    18    15    16    1
    19    16    17    1
    20    17    18    1
    21    18    19    1
    22    19    20    1
    23    20    21    1
    24    21    22    1
    25    22    23    1
    26    22    24    1
    27    22    25    1
    28     4     8    1
    29     8     9   ar
    30     9    10   ar
    31    10    11   ar
    32    11    12   ar
    33    12    13   ar
    34    30    31   ar
    35    31    32   ar
    36    36    37   ar
    37    37    38   ar
    38    38    33   ar
    39    32    27   ar
    40    13     1    1
    41    20    15    1
    42    13     8   ar
    43    25    16    1
    44    24    18    1
    45     7    14    1
    46    23    26    1
@<TRIPOS>MOLECULE
*****
 40 46 0 0 0
SMALL
GASTEIGER

@<TRIPOS>ATOM
      1 N          60.9262   90.2689    7.2775 N.pl3   1  UNL1       -0.2543
      2 C          61.9870   90.8360    8.1736 C.3     1  UNL1        0.1203
      3 C          62.3418   90.1360    9.4519 C.3     1  UNL1        0.1216
      4 N          61.6358   88.8690    9.8342 N.am    1  UNL1       -0.2403
      5 C          61.9905   88.1691   11.1126 C.2     1  UNL1        0.3078
      6 O          61.2844   86.9020   11.4948 O.2     1  UNL1       -0.2522
      7 N          63.0514   88.7361   12.0087 N.am    1  UNL1       -0.2901
      8 C          60.5749   88.3019    8.9381 C.ar    1  UNL1        0.0690
      9 C          59.8689   87.0349    9.3203 C.ar    1  UNL1        0.0162
     10 C          58.8081   86.4678    8.4242 C.ar    1  UNL1        0.0014
     11 C          58.4533   87.1678    7.1458 C.ar    1  UNL1        0.0014
     12 C          59.1593   88.4348    6.7636 C.ar    1  UNL1        0.0162
     13 C          60.2201   89.0018    7.6597 C.ar    1  UNL1        0.0678
     14 H          63.5148   89.5677   11.7578 H       1  UNL1        0.1509
     15 C          63.4061   88.0362   13.2870 C.3     1  UNL1        0.0731
     16 C          63.4691   86.5381   13.3293 C.3     1  UNL1        0.0204
     17 C          63.7609   87.3362   14.5654 C.3     1  UNL1        0.0018
     18 C          64.1157   86.6363   15.8438 C.3     1  UNL1        0.0024
     19 C          64.0527   88.1344   15.8015 C.3     1  UNL1        0.0018
     20 C          63.6979   88.8343   14.5231 C.3     1  UNL1        0.0204
     21 C          64.0190   85.6658   15.3392 C.3     1  UNL1        0.0285
     22 C          63.8869   84.3401   14.6500 C.3     1  UNL1        0.0884
     23 O          63.9499   82.8420   14.6923 O.3     1  UNL1       -0.3867
     24 C          64.1787   85.1382   15.8861 C.3     1  UNL1        0.0269
     25 C          63.5321   85.0400   13.3716 C.3     1  UNL1        0.0285
     26 H          64.1911   82.5537   15.5865 H       1  UNL1        0.2102
     27 C          59.8619   92.3687    3.4424 C.ar    1  UNL1        0.0384
     28 C          58.8032   92.1046    4.4716 C.ar    1  UNL1        0.1033
     29 N          59.1580   91.4047    5.7499 N.ar    1  UNL1       -0.2118
     30 C          60.5715   90.9688    5.9991 C.ar    1  UNL1        0.2241
     31 N          61.6303   91.2330    4.9698 N.ar    1  UNL1       -0.2118
     32 C          61.2755   91.9329    3.6915 C.ar    1  UNL1        0.1033
     33 C          58.7976   94.4686   -0.3927 C.ar    1  UNL1        0.1387
     34 C          59.6128   95.1765    0.6487 C.ar    1  UNL1        0.0369
     35 C          59.9676   94.4765    1.9270 C.ar    1  UNL1        0.0032
     36 C          59.5072   93.0687    2.1640 C.ar    1  UNL1        0.0032
     37 C          58.6920   92.3609    1.1226 C.ar    1  UNL1        0.0032
     38 C          58.3372   93.0608   -0.1557 C.ar    1  UNL1        0.0369
     39 C          57.0125   95.2339   -2.1184 C.3     1  UNL1        0.2525
     40 O          58.4429   95.1685   -1.6711 O.3     1  UNL1       -0.4714
@<TRIPOS>BOND
     1    39    40    1
     2    40    33    1
     3    33    34   ar
     4    34    35   ar
     5    35    36   ar
     6    36    27    1
     7    27    28   ar
     8    28    29   ar
     9    29    30   ar
    10    30     1    1
    11     1     2    1
    12     2     3    1
    13     3     4    1
    14     4     5   am
    15     5     6    2
    16     5     7   am
    17    15     7    1
    18    15    16    1
    19    16    17    1
    20    17    18    1
    21    18    19    1
    22    19    20    1
    23    20    21    1
    24    21    22    1
    25    22    23    1
    26    22    24    1
    27    22    25    1
    28     4     8    1
    29     8     9   ar
    30     9    10   ar
    31    10    11   ar
    32    11    12   ar
    33    12    13   ar
    34    30    31   ar
    35    31    32   ar
    36    36    37   ar
    37    37    38   ar
    38    38    33   ar
    39    32    27   ar
    40    13     1    1
    41    20    15    1
    42    13     8   ar
    43    25    16    1
    44    24    18    1
    45     7    14    1
    46    23    26    1
