@<TRIPOS>MOLECULE
*****
 56 62 0 0 0
SMALL
GASTEIGER

@<TRIPOS>ATOM
      1 N          62.9150   84.0661    9.4076 N.3     1  UNL1       -0.1862
      2 C          62.2642   84.1471    8.0586 C.3     1  UNL1        0.1775
      3 C          61.4265   85.3387    7.7004 C.2     1  UNL1        0.2452
      4 O          60.7756   85.4197    6.3514 O.2     1  UNL1       -0.2732
      5 N          61.2396   86.4492    8.6912 N.am    1  UNL1       -0.2541
      6 C          60.4018   87.6408    8.3330 C.3     1  UNL1        0.1577
      7 C          60.2149   88.7514    9.3238 C.2     1  UNL1        0.2445
      8 O          59.3772   89.9430    8.9656 O.2     1  UNL1       -0.2731
      9 N          60.8658   88.6704   10.6729 N.am    1  UNL1       -0.2705
     10 C          61.7035   87.4788   11.0311 C.3     1  UNL1        0.1359
     11 C          61.8904   86.3682   10.0402 C.3     1  UNL1        0.1908
     12 N          62.7281   85.1766   10.3984 N.am    1  UNL1       -0.1863
     13 C          63.3790   85.0956   11.7475 C.2     1  UNL1        0.3191
     14 O          63.1921   86.2062   12.7382 O.2     1  UNL1       -0.2512
     15 N          64.2167   83.9040   12.1057 N.am    1  UNL1       -0.2836
     16 H          64.3394   83.1751   11.4554 H       1  UNL1        0.1513
     17 C          63.7528   82.8745    9.7658 C.3     1  UNL1        0.1188
     18 C          62.7988   81.2893   11.5898 C.2     1  UNL1       -0.0034
     19 C          63.0941   81.5824   10.1487 C.2     1  UNL1       -0.0071
     20 C          59.7510   87.7219    6.9841 C.3     1  UNL1        0.0556
     21 C          59.5341   89.0566    6.3349 C.ar    1  UNL1       -0.0198
     22 C          58.1505   89.6275    6.2379 C.ar    1  UNL1       -0.0011
     23 C          57.9336   90.9623    5.5887 C.ar    1  UNL1        0.0363
     24 C          59.1005   91.7261    5.0366 C.ar    1  UNL1        0.1337
     25 O          58.8837   93.0609    4.3874 O.3     1  UNL1       -0.5055
     26 C          60.4843   91.1553    5.1336 C.ar    1  UNL1        0.0363
     27 C          60.7011   89.8205    5.7827 C.ar    1  UNL1       -0.0011
     28 H          58.0193   93.4175    4.3268 H       1  UNL1        0.2922
     29 C          60.6789   89.7809   11.6637 C.3     1  UNL1        0.1217
     30 C          61.7425   90.0636   12.6830 C.ar    1  UNL1        0.0135
     31 C          61.5579   89.6172   14.1031 C.ar    1  UNL1       -0.0012
     32 C          62.6215   89.8998   15.1223 C.ar    1  UNL1       -0.0002
     33 C          63.8696   90.6289   14.7215 C.ar    1  UNL1        0.0016
     34 C          64.0541   91.0753   13.3014 C.ar    1  UNL1        0.0214
     35 C          65.1694   91.8081   12.6165 C.ar    1  UNL1        0.0731
     36 C          64.7952   91.9783   11.1740 C.ar    1  UNL1        0.0805
     37 N          63.4486   91.3508   10.9674 N.ar    1  UNL1       -0.3241
     38 C          62.6927   91.2917    9.6731 C.3     1  UNL1        0.1305
     39 C          62.9906   90.7927   12.2821 C.ar    1  UNL1        0.0577
     40 C          66.4366   92.2866   13.2611 C.2     1  UNL1        0.2605
     41 O          67.6326   92.6100   12.4154 O.2     1  UNL1       -0.2688
     42 N          66.5078   92.4418   14.7514 N.am    1  UNL1       -0.2429
     43 H          65.7229   92.2296   15.3064 H       1  UNL1        0.1696
     44 N          67.7749   92.9203   15.3959 N.3     1  UNL1       -0.2057
     45 C          68.1023   94.3841   15.4108 C.3     1  UNL1        0.0919
     46 C          69.3694   94.8627   16.0554 C.3     1  UNL1        0.0191
     47 C          70.3090   93.8776   16.6851 C.3     1  UNL1        0.0030
     48 C          69.9815   92.4138   16.6703 C.3     1  UNL1        0.0191
     49 C          68.7145   91.9352   16.0257 C.3     1  UNL1        0.0919
     50 C          64.8676   83.8230   13.4546 C.3     1  UNL1        0.1177
     51 C          64.2679   84.5500   14.6216 C.ar    1  UNL1       -0.0025
     52 C          63.1120   83.9499   15.3655 C.ar    1  UNL1       -0.0026
     53 C          62.5123   84.6770   16.5325 C.ar    1  UNL1       -0.0003
     54 C          63.0686   86.0042   16.9555 C.ar    1  UNL1       -0.0000
     55 C          64.2247   86.6044   16.2116 C.ar    1  UNL1       -0.0003
     56 C          64.8243   85.8773   15.0446 C.ar    1  UNL1       -0.0026
@<TRIPOS>BOND
     1    18    19    2
     2    19    17    1
     3    17     1    1
     4     1     2    1
     5     2     3    1
     6     3     4    2
     7     3     5   am
     8     5     6    1
     9     6    20    1
    10    20    21    1
    11    21    22   ar
    12    22    23   ar
    13    23    24   ar
    14    24    25    1
    15    24    26   ar
    16    26    27   ar
    17     6     7    1
    18     7     8    2
    19     7     9   am
    20     9    29    1
    21    29    30    1
    22    30    31   ar
    23    31    32   ar
    24    32    33   ar
    25    33    34   ar
    26    34    35   ar
    27    35    40    1
    28    40    41    2
    29    40    42   am
    30    42    44    1
    31    44    45    1
    32    45    46    1
    33    46    47    1
    34    47    48    1
    35    48    49    1
    36    35    36   ar
    37    36    37   ar
    38    37    38    1
    39    37    39   ar
    40     9    10    1
    41    11    10    1
    42    11    12    1
    43    12    13   am
    44    13    14    2
    45    13    15   am
    46    15    50    1
    47    50    51    1
    48    51    52   ar
    49    52    53   ar
    50    53    54   ar
    51    54    55   ar
    52    55    56   ar
    53    12     1    1
    54    56    51   ar
    55    11     5    1
    56    27    21   ar
    57    39    30   ar
    58    39    34   ar
    59    49    44    1
    60    25    28    1
    61    42    43    1
    62    15    16    1
@<TRIPOS>MOLECULE
*****
 56 62 0 0 0
SMALL
GASTEIGER

@<TRIPOS>ATOM
      1 N          62.1273   95.2639   -3.4132 N.3     1  UNL1       -0.1862
      2 C          61.0765   94.8625   -4.4056 C.3     1  UNL1        0.1775
      3 C          59.7863   94.2628   -3.9306 C.2     1  UNL1        0.2452
      4 O          58.7356   93.8614   -4.9230 O.2     1  UNL1       -0.2732
      5 N          59.5468   94.0644   -2.4632 N.am    1  UNL1       -0.2541
      6 C          58.2566   93.4647   -1.9882 C.3     1  UNL1        0.1577
      7 C          58.0171   93.2663   -0.5208 C.2     1  UNL1        0.2445
      8 O          56.7269   92.6666   -0.0458 O.2     1  UNL1       -0.2731
      9 N          59.0678   93.6677    0.4717 N.am    1  UNL1       -0.2705
     10 C          60.3581   94.2675   -0.0034 C.3     1  UNL1        0.1359
     11 C          60.5975   94.4658   -1.4708 C.3     1  UNL1        0.1908
     12 N          61.8878   95.0656   -1.9458 N.am    1  UNL1       -0.1863
     13 C          62.9385   95.4670   -0.9534 C.2     1  UNL1        0.3191
     14 O          62.6990   95.2686    0.5140 O.2     1  UNL1       -0.2512
     15 N          64.2287   96.0667   -1.4284 N.am    1  UNL1       -0.2836
     16 H          64.3859   96.1969   -2.3915 H       1  UNL1        0.1513
     17 C          63.4175   95.8637   -3.8882 C.3     1  UNL1        0.1188
     18 C          65.4229   95.5094   -5.5015 C.2     1  UNL1       -0.0034
     19 C          63.9439   95.5269   -5.2518 C.2     1  UNL1       -0.0071
     20 C          57.2059   93.0633   -2.9805 C.3     1  UNL1        0.0556
     21 C          56.0780   93.9995   -3.2987 C.ar    1  UNL1       -0.0198
     22 C          55.7980   94.3801   -4.7223 C.ar    1  UNL1       -0.0011
     23 C          54.6701   95.3164   -5.0404 C.ar    1  UNL1        0.0363
     24 C          53.8221   95.8721   -3.9349 C.ar    1  UNL1        0.1337
     25 O          52.6942   96.8083   -4.2530 O.3     1  UNL1       -0.5055
     26 C          54.1021   95.4915   -2.5112 C.ar    1  UNL1        0.0363
     27 C          55.2300   94.5552   -2.1931 C.ar    1  UNL1       -0.0011
     28 H          52.5193   97.0461   -5.1423 H       1  UNL1        0.2922
     29 C          58.8283   93.4694    1.9390 C.3     1  UNL1        0.1217
     30 C          59.7791   92.6381    2.7485 C.ar    1  UNL1        0.0135
     31 C          61.2327   92.5899    2.3816 C.ar    1  UNL1       -0.0012
     32 C          62.1834   91.7587    3.1910 C.ar    1  UNL1       -0.0002
     33 C          61.6804   90.9757    4.3674 C.ar    1  UNL1        0.0016
     34 C          60.2268   91.0239    4.7344 C.ar    1  UNL1        0.0214
     35 C          59.4463   90.3636    5.8319 C.ar    1  UNL1        0.0731
     36 C          58.0132   90.7867    5.7008 C.ar    1  UNL1        0.0805
     37 N          57.9080   91.7085    4.5223 N.ar    1  UNL1       -0.3241
     38 C          56.6548   92.3680    4.0278 C.3     1  UNL1        0.1305
     39 C          59.2761   91.8551    3.9249 C.ar    1  UNL1        0.0577
     40 C          60.0014   89.4419    6.8772 C.2     1  UNL1        0.2605
     41 O          60.1294   87.9748    6.5919 O.2     1  UNL1       -0.2688
     42 N          60.4285   89.9873    8.2076 N.am    1  UNL1       -0.2429
     43 H          60.3445   90.9502    8.3948 H       1  UNL1        0.1696
     44 N          60.9836   89.0657    9.2528 N.3     1  UNL1       -0.2057
     45 C          62.0812   89.5359   10.1607 C.3     1  UNL1        0.0919
     46 C          62.6364   88.6144   11.2059 C.3     1  UNL1        0.0191
     47 C          62.0940   87.2227   11.3434 C.3     1  UNL1        0.0030
     48 C          60.9963   86.7525   10.4355 C.3     1  UNL1        0.0191
     49 C          60.4412   87.6740    9.3903 C.3     1  UNL1        0.0919
     50 C          65.2794   96.4681   -0.4360 C.3     1  UNL1        0.1177
     51 C          65.2408   95.9207    0.9599 C.ar    1  UNL1       -0.0025
     52 C          65.3085   94.4395    1.1868 C.ar    1  UNL1       -0.0026
     53 C          65.2698   93.8920    2.5828 C.ar    1  UNL1       -0.0003
     54 C          65.1636   94.8257    3.7519 C.ar    1  UNL1       -0.0000
     55 C          65.0959   96.3070    3.5251 C.ar    1  UNL1       -0.0003
     56 C          65.1345   96.8544    2.1291 C.ar    1  UNL1       -0.0026
@<TRIPOS>BOND
     1    18    19    2
     2    19    17    1
     3    17     1    1
     4     1     2    1
     5     2     3    1
     6     3     4    2
     7     3     5   am
     8     5     6    1
     9     6    20    1
    10    20    21    1
    11    21    22   ar
    12    22    23   ar
    13    23    24   ar
    14    24    25    1
    15    24    26   ar
    16    26    27   ar
    17     6     7    1
    18     7     8    2
    19     7     9   am
    20     9    29    1
    21    29    30    1
    22    30    31   ar
    23    31    32   ar
    24    32    33   ar
    25    33    34   ar
    26    34    35   ar
    27    35    40    1
    28    40    41    2
    29    40    42   am
    30    42    44    1
    31    44    45    1
    32    45    46    1
    33    46    47    1
    34    47    48    1
    35    48    49    1
    36    35    36   ar
    37    36    37   ar
    38    37    38    1
    39    37    39   ar
    40     9    10    1
    41    11    10    1
    42    11    12    1
    43    12    13   am
    44    13    14    2
    45    13    15   am
    46    15    50    1
    47    50    51    1
    48    51    52   ar
    49    52    53   ar
    50    53    54   ar
    51    54    55   ar
    52    55    56   ar
    53    12     1    1
    54    56    51   ar
    55    11     5    1
    56    27    21   ar
    57    39    30   ar
    58    39    34   ar
    59    49    44    1
    60    25    28    1
    61    42    43    1
    62    15    16    1
@<TRIPOS>MOLECULE
*****
 56 62 0 0 0
SMALL
GASTEIGER

@<TRIPOS>ATOM
      1 N          62.3369   95.0285   -3.4650 N.3     1  UNL1       -0.1862
      2 C          61.2082   94.9481   -4.4496 C.3     1  UNL1        0.1775
      3 C          59.8232   94.6180   -3.9776 C.2     1  UNL1        0.2452
      4 O          58.6945   94.5376   -4.9624 O.2     1  UNL1       -0.2732
      5 N          59.5669   94.3683   -2.5210 N.am    1  UNL1       -0.2541
      6 C          58.1819   94.0382   -2.0490 C.3     1  UNL1        0.1577
      7 C          57.9255   93.7884   -0.5923 C.2     1  UNL1        0.2445
      8 O          56.5405   93.4583   -0.1203 O.2     1  UNL1       -0.2731
      9 N          59.0542   93.8689    0.3924 N.am    1  UNL1       -0.2705
     10 C          60.4392   94.1990   -0.0796 C.3     1  UNL1        0.1359
     11 C          60.6955   94.4487   -1.5363 C.3     1  UNL1        0.1908
     12 N          62.0805   94.7788   -2.0083 N.am    1  UNL1       -0.1863
     13 C          63.2092   94.8593   -1.0236 C.2     1  UNL1        0.3191
     14 O          62.9529   94.6095    0.4331 O.2     1  UNL1       -0.2512
     15 N          64.5942   95.1894   -1.4956 N.am    1  UNL1       -0.2836
     16 H          64.7625   95.3533   -2.4516 H       1  UNL1        0.1513
     17 C          63.7219   95.3587   -3.9370 C.3     1  UNL1        0.1188
     18 C          64.2486   92.9175   -4.6532 C.2     1  UNL1       -0.0034
     19 C          64.4666   94.3932   -4.8106 C.2     1  UNL1       -0.0071
     20 C          57.0532   93.9577   -3.0336 C.3     1  UNL1        0.0556
     21 C          56.4306   92.6312   -3.3541 C.ar    1  UNL1       -0.0198
     22 C          55.9840   91.7249   -2.2455 C.ar    1  UNL1       -0.0011
     23 C          55.3614   90.3984   -2.5660 C.ar    1  UNL1        0.0363
     24 C          55.1853   89.9782   -3.9951 C.ar    1  UNL1        0.1337
     25 O          54.5627   88.6517   -4.3156 O.3     1  UNL1       -0.5055
     26 C          55.6319   90.8846   -5.1038 C.ar    1  UNL1        0.0363
     27 C          56.2546   92.2111   -4.7833 C.ar    1  UNL1       -0.0011
     28 H          54.2838   88.0855   -3.6231 H       1  UNL1        0.2922
     29 C          58.7979   93.6192    1.8491 C.3     1  UNL1        0.1217
     30 C          59.7398   92.7603    2.6400 C.ar    1  UNL1        0.0135
     31 C          61.1941   92.7101    2.2760 C.ar    1  UNL1       -0.0012
     32 C          62.1359   91.8514    3.0668 C.ar    1  UNL1       -0.0002
     33 C          61.6234   91.0428    4.2215 C.ar    1  UNL1        0.0016
     34 C          60.1691   91.0929    4.5855 C.ar    1  UNL1        0.0214
     35 C          59.3802   90.4111    5.6638 C.ar    1  UNL1        0.0731
     36 C          57.9508   90.8485    5.5394 C.ar    1  UNL1        0.0805
     37 N          57.8563   91.8006    4.3843 N.ar    1  UNL1       -0.3241
     38 C          56.6097   92.4821    3.9031 C.3     1  UNL1        0.1305
     39 C          59.2273   91.9517    3.7947 C.ar    1  UNL1        0.0577
     40 C          59.9251   89.4590    6.6869 C.2     1  UNL1        0.2605
     41 O          60.0503   87.9999    6.3620 O.2     1  UNL1       -0.2688
     42 N          60.3449   89.9659    8.0348 N.am    1  UNL1       -0.2429
     43 H          60.2627   90.9236    8.2480 H       1  UNL1        0.1696
     44 N          60.8897   89.0139    9.0579 N.3     1  UNL1       -0.2057
     45 C          60.4145   87.5915    9.0868 C.3     1  UNL1        0.0919
     46 C          60.9594   86.6394   10.1099 C.3     1  UNL1        0.0191
     47 C          61.9794   87.1098   11.1040 C.3     1  UNL1        0.0030
     48 C          62.4546   88.5322   11.0751 C.3     1  UNL1        0.0191
     49 C          61.9097   89.4843   10.0520 C.3     1  UNL1        0.0919
     50 C          65.7229   95.2698   -0.5109 C.3     1  UNL1        0.1177
     51 C          65.4317   95.3880    0.9558 C.ar    1  UNL1       -0.0025
     52 C          65.1584   94.1567    1.7678 C.ar    1  UNL1       -0.0026
     53 C          64.8672   94.2749    3.2345 C.ar    1  UNL1       -0.0003
     54 C          64.8492   95.6242    3.8892 C.ar    1  UNL1       -0.0000
     55 C          65.1225   96.8556    3.0773 C.ar    1  UNL1       -0.0003
     56 C          65.4137   96.7374    1.6106 C.ar    1  UNL1       -0.0026
@<TRIPOS>BOND
     1    18    19    2
     2    19    17    1
     3    17     1    1
     4     1     2    1
     5     2     3    1
     6     3     4    2
     7     3     5   am
     8     5     6    1
     9     6    20    1
    10    20    21    1
    11    21    22   ar
    12    22    23   ar
    13    23    24   ar
    14    24    25    1
    15    24    26   ar
    16    26    27   ar
    17     6     7    1
    18     7     8    2
    19     7     9   am
    20     9    29    1
    21    29    30    1
    22    30    31   ar
    23    31    32   ar
    24    32    33   ar
    25    33    34   ar
    26    34    35   ar
    27    35    40    1
    28    40    41    2
    29    40    42   am
    30    42    44    1
    31    44    45    1
    32    45    46    1
    33    46    47    1
    34    47    48    1
    35    48    49    1
    36    35    36   ar
    37    36    37   ar
    38    37    38    1
    39    37    39   ar
    40     9    10    1
    41    11    10    1
    42    11    12    1
    43    12    13   am
    44    13    14    2
    45    13    15   am
    46    15    50    1
    47    50    51    1
    48    51    52   ar
    49    52    53   ar
    50    53    54   ar
    51    54    55   ar
    52    55    56   ar
    53    12     1    1
    54    56    51   ar
    55    11     5    1
    56    27    21   ar
    57    39    30   ar
    58    39    34   ar
    59    49    44    1
    60    25    28    1
    61    42    43    1
    62    15    16    1
@<TRIPOS>MOLECULE
*****
 56 62 0 0 0
SMALL
GASTEIGER

@<TRIPOS>ATOM
      1 N          62.7409   84.0052    9.6092 N.3     1  UNL1       -0.1862
      2 C          62.0485   84.0235    8.2787 C.3     1  UNL1        0.1775
      3 C          61.3196   85.2551    7.8294 C.2     1  UNL1        0.2452
      4 O          60.6271   85.2733    6.4989 O.2     1  UNL1       -0.2732
      5 N          61.2832   86.4684    8.7105 N.am    1  UNL1       -0.2541
      6 C          60.5543   87.7000    8.2612 C.3     1  UNL1        0.1577
      7 C          60.5178   88.9134    9.1423 C.2     1  UNL1        0.2445
      8 O          59.7890   90.1450    8.6930 O.2     1  UNL1       -0.2731
      9 N          61.2103   88.8952   10.4728 N.am    1  UNL1       -0.2705
     10 C          61.9392   87.6636   10.9222 C.3     1  UNL1        0.1359
     11 C          61.9756   86.4502   10.0410 C.3     1  UNL1        0.1908
     12 N          62.7045   85.2186   10.4903 N.am    1  UNL1       -0.1863
     13 C          63.3969   85.2004   11.8208 C.2     1  UNL1        0.3191
     14 O          63.3605   86.4137   12.7020 O.2     1  UNL1       -0.2512
     15 N          64.1258   83.9688   12.2702 N.am    1  UNL1       -0.2836
     16 H          64.1497   83.1724   11.6919 H       1  UNL1        0.1513
     17 C          63.4698   82.7736   10.0585 C.3     1  UNL1        0.1188
     18 C          62.7329   81.0376   11.8454 C.2     1  UNL1       -0.0034
     19 C          62.7006   81.5416   10.4330 C.2     1  UNL1       -0.0071
     20 C          59.8619   87.7183    6.9307 C.3     1  UNL1        0.0556
     21 C          59.6099   89.0226    6.2342 C.ar    1  UNL1       -0.0198
     22 C          60.7440   89.7553    5.5809 C.ar    1  UNL1       -0.0011
     23 C          60.4920   91.0597    4.8843 C.ar    1  UNL1        0.0363
     24 C          59.1059   91.6314    4.8411 C.ar    1  UNL1        0.1337
     25 O          58.8540   92.9357    4.1446 O.3     1  UNL1       -0.5055
     26 C          57.9717   90.8986    5.4944 C.ar    1  UNL1        0.0363
     27 C          58.2237   89.5943    6.1910 C.ar    1  UNL1       -0.0011
     28 H          59.5624   93.3934    3.7364 H       1  UNL1        0.2922
     29 C          61.1739   90.1085   11.3539 C.3     1  UNL1        0.1217
     30 C          62.4384   90.8597   11.6487 C.ar    1  UNL1        0.0135
     31 C          63.1266   91.6265   10.5586 C.ar    1  UNL1       -0.0012
     32 C          64.3911   92.3776   10.8533 C.ar    1  UNL1       -0.0002
     33 C          64.9673   92.3619   12.2381 C.ar    1  UNL1        0.0016
     34 C          64.2791   91.5951   13.3282 C.ar    1  UNL1        0.0214
     35 C          64.6083   91.3975   14.7782 C.ar    1  UNL1        0.0731
     36 C          63.5473   90.5243   15.3796 C.ar    1  UNL1        0.0805
     37 N          62.5624   90.1822   14.3014 N.ar    1  UNL1       -0.3241
     38 C          61.3398   89.3282   14.4626 C.3     1  UNL1        0.1305
     39 C          63.0146   90.8440   13.0335 C.ar    1  UNL1        0.0577
     40 C          65.7910   91.9723   15.5001 C.2     1  UNL1        0.2605
     41 O          65.6733   92.3569   16.9451 O.2     1  UNL1       -0.2688
     42 N          67.0913   92.1624   14.7768 N.am    1  UNL1       -0.2429
     43 H          67.1685   91.9099   13.8284 H       1  UNL1        0.1696
     44 N          68.2740   92.7371   15.4986 N.3     1  UNL1       -0.2057
     45 C          68.5617   94.2069   15.4152 C.3     1  UNL1        0.0919
     46 C          69.7443   94.7817   16.1370 C.3     1  UNL1        0.0191
     47 C          70.6392   93.8868   16.9420 C.3     1  UNL1        0.0030
     48 C          70.3515   92.4170   17.0254 C.3     1  UNL1        0.0191
     49 C          69.1689   91.8422   16.3037 C.3     1  UNL1        0.0919
     50 C          64.8182   83.9505   13.6006 C.3     1  UNL1        0.1177
     51 C          64.1998   84.6450   14.7776 C.ar    1  UNL1       -0.0025
     52 C          64.6960   85.9971   15.1964 C.ar    1  UNL1       -0.0026
     53 C          64.0775   86.6916   16.3733 C.ar    1  UNL1       -0.0003
     54 C          62.9629   86.0339   17.1316 C.ar    1  UNL1       -0.0000
     55 C          62.4666   84.6816   16.7128 C.ar    1  UNL1       -0.0003
     56 C          63.0851   83.9872   15.5358 C.ar    1  UNL1       -0.0026
@<TRIPOS>BOND
     1    18    19    2
     2    19    17    1
     3    17     1    1
     4     1     2    1
     5     2     3    1
     6     3     4    2
     7     3     5   am
     8     5     6    1
     9     6    20    1
    10    20    21    1
    11    21    22   ar
    12    22    23   ar
    13    23    24   ar
    14    24    25    1
    15    24    26   ar
    16    26    27   ar
    17     6     7    1
    18     7     8    2
    19     7     9   am
    20     9    29    1
    21    29    30    1
    22    30    31   ar
    23    31    32   ar
    24    32    33   ar
    25    33    34   ar
    26    34    35   ar
    27    35    40    1
    28    40    41    2
    29    40    42   am
    30    42    44    1
    31    44    45    1
    32    45    46    1
    33    46    47    1
    34    47    48    1
    35    48    49    1
    36    35    36   ar
    37    36    37   ar
    38    37    38    1
    39    37    39   ar
    40     9    10    1
    41    11    10    1
    42    11    12    1
    43    12    13   am
    44    13    14    2
    45    13    15   am
    46    15    50    1
    47    50    51    1
    48    51    52   ar
    49    52    53   ar
    50    53    54   ar
    51    54    55   ar
    52    55    56   ar
    53    12     1    1
    54    56    51   ar
    55    11     5    1
    56    27    21   ar
    57    39    30   ar
    58    39    34   ar
    59    49    44    1
    60    25    28    1
    61    42    43    1
    62    15    16    1
