@<TRIPOS>MOLECULE
*****
 39 43 0 0 0
SMALL
GASTEIGER

@<TRIPOS>ATOM
      1 C          62.0340   88.3205   11.9972 C.3     1  UNL1        0.1631
      2 N          62.1607   86.9526   11.3948 N.ar    1  UNL1       -0.3047
      3 C          61.6269   86.5243   10.0600 C.ar    1  UNL1        0.1441
      4 N          61.9797   85.0799    9.8616 N.ar    1  UNL1       -0.2267
      5 C          62.7314   84.6156   11.0738 C.ar    1  UNL1        0.1010
      6 C          63.3285   83.2885   11.4371 C.ar    1  UNL1        0.0526
      7 C          64.0375   83.1187   12.7481 C.ar    1  UNL1        0.1690
      8 F          64.6347   81.7914   13.1114 F       1  UNL1       -0.2017
      9 C          64.1494   84.2761   13.6956 C.ar    1  UNL1        0.1689
     10 F          64.8584   84.1063   15.0066 F       1  UNL1       -0.2017
     11 C          63.5523   85.6033   13.3323 C.ar    1  UNL1        0.0507
     12 C          62.8433   85.7730   12.0213 C.ar    1  UNL1        0.0816
     13 C          60.8729   87.3886    9.0934 C.ar    1  UNL1        0.0342
     14 C          59.7551   86.8057    8.2804 C.ar    1  UNL1        0.0039
     15 C          59.0010   87.6700    7.3138 C.ar    1  UNL1        0.0115
     16 C          59.3647   89.1171    7.1601 C.ar    1  UNL1        0.0577
     17 CL         58.6106   89.9813    6.1935 Cl      1  UNL1       -0.0822
     18 C          60.4824   89.6999    7.9731 C.ar    1  UNL1        0.0115
     19 C          61.2365   88.8357    8.9397 C.ar    1  UNL1        0.0039
     20 C          60.7136   89.0315   11.9728 C.3     1  UNL1        0.0297
     21 C          59.4804   88.3410   12.4755 C.3     1  UNL1        0.0024
     22 C          58.1599   89.0521   12.4510 C.3     1  UNL1        0.0001
     23 C          58.0725   90.4537   11.9238 C.3     1  UNL1        0.0000
     24 C          59.3056   91.1442   11.4211 C.3     1  UNL1        0.0001
     25 C          60.6260   90.4331   11.4456 C.3     1  UNL1        0.0024
     26 N          63.5120   90.4264   12.3598 N.am    1  UNL1       -0.2817
     27 C          63.2280   88.9774   12.6242 C.2     1  UNL1        0.2468
     28 O          64.1380   88.1853   13.5156 O.2     1  UNL1       -0.2727
     29 H          62.9147   90.9462   11.7748 H       1  UNL1        0.1549
     30 C          67.0938   92.3967   14.2410 C.ar    1  UNL1        0.0149
     31 C          66.2838   91.4073   15.0253 C.ar    1  UNL1        0.0025
     32 C          65.0898   90.7505   14.3982 C.ar    1  UNL1        0.0156
     33 C          64.7059   91.0831   12.9868 C.ar    1  UNL1        0.0610
     34 C          65.5158   92.0725   12.2025 C.ar    1  UNL1        0.0711
     35 CL         65.1319   92.4050   10.7911 Cl      1  UNL1       -0.0810
     36 C          66.7098   92.7292   12.8295 C.ar    1  UNL1        0.0138
     37 O          69.6655   92.7457   14.3611 O.co2   1  UNL1       -0.5446
     38 C          68.2877   93.0534   14.8679 C.2     1  UNL1        0.0729
     39 O          68.1038   94.0181   16.0018 O.co2   1  UNL1       -0.5446
@<TRIPOS>UNITY_ATOM_ATTR
37 1
charge -1
@<TRIPOS>BOND
     1    37    38   ar
     2    38    39   ar
     3    38    30    1
     4    30    31   ar
     5    31    32   ar
     6    32    33   ar
     7    33    26    1
     8    26    27   am
     9    27    28    2
    10    27     1    1
    11     1    20    1
    12    20    21    1
    13    21    22    1
    14    22    23    1
    15    23    24    1
    16    24    25    1
    17     1     2    1
    18     2     3   ar
    19     3    13    1
    20    13    14   ar
    21    14    15   ar
    22    15    16   ar
    23    16    17    1
    24    16    18   ar
    25    18    19   ar
    26     3     4   ar
    27     4     5   ar
    28     5     6   ar
    29     6     7   ar
    30     7     8    1
    31     7     9   ar
    32     9    10    1
    33     9    11   ar
    34    11    12   ar
    35    33    34   ar
    36    34    35    1
    37    34    36   ar
    38    36    30   ar
    39    25    20    1
    40    12     2   ar
    41    19    13   ar
    42    12     5   ar
    43    26    29    1
@<TRIPOS>MOLECULE
*****
 39 43 0 0 0
SMALL
GASTEIGER

@<TRIPOS>ATOM
      1 C          62.9845   84.9595   12.1053 C.3     1  UNL1        0.1631
      2 N          62.8558   83.6345   12.7966 N.ar    1  UNL1       -0.3047
      3 C          62.7265   83.4206   14.2756 C.ar    1  UNL1        0.1441
      4 N          62.6245   81.9447   14.5233 N.ar    1  UNL1       -0.2267
      5 C          62.6908   81.2466   13.1974 C.ar    1  UNL1        0.1010
      6 C          62.6394   79.7947   12.8239 C.ar    1  UNL1        0.0526
      7 C          62.7310   79.3872   11.3832 C.ar    1  UNL1        0.1690
      8 F          62.6796   77.9353   11.0097 F       1  UNL1       -0.2017
      9 C          62.8739   80.4316   10.3160 C.ar    1  UNL1        0.1689
     10 F          62.9655   80.0241    8.8753 F       1  UNL1       -0.2017
     11 C          62.9253   81.8834   10.6895 C.ar    1  UNL1        0.0507
     12 C          62.8337   82.2909   12.1302 C.ar    1  UNL1        0.0816
     13 C          62.7033   84.4941   15.3230 C.ar    1  UNL1        0.0342
     14 C          61.4248   85.2167   15.6281 C.ar    1  UNL1        0.0039
     15 C          61.4016   86.2902   16.6755 C.ar    1  UNL1        0.0115
     16 C          62.6568   86.6411   17.4178 C.ar    1  UNL1        0.0577
     17 CL         62.6336   87.7147   18.4652 Cl      1  UNL1       -0.0822
     18 C          63.9354   85.9185   17.1127 C.ar    1  UNL1        0.0115
     19 C          63.9587   84.8450   16.0653 C.ar    1  UNL1        0.0039
     20 C          62.5581   85.1037   10.6746 C.3     1  UNL1        0.0297
     21 C          63.4354   84.5841    9.5744 C.3     1  UNL1        0.0024
     22 C          63.0088   84.7282    8.1436 C.3     1  UNL1        0.0001
     23 C          61.7049   85.3919    7.8128 C.3     1  UNL1        0.0000
     24 C          60.8276   85.9116    8.9130 C.3     1  UNL1        0.0001
     25 C          61.2541   85.7674   10.3438 C.3     1  UNL1        0.0024
     26 N          62.9925   87.5129   12.5858 N.am    1  UNL1       -0.2817
     27 C          63.5399   86.1405   12.8450 C.2     1  UNL1        0.2468
     28 O          64.6425   85.9492   13.8437 O.2     1  UNL1       -0.2727
     29 H          62.2688   87.6385   11.9303 H       1  UNL1        0.1549
     30 C          64.6586   91.0555   14.8049 C.ar    1  UNL1        0.0149
     31 C          64.5691   89.7203   15.4827 C.ar    1  UNL1        0.0025
     32 C          64.0137   88.5394   14.7429 C.ar    1  UNL1        0.0156
     33 C          63.5478   88.6937   13.3254 C.ar    1  UNL1        0.0610
     34 C          63.6373   90.0289   12.6477 C.ar    1  UNL1        0.0711
     35 CL         63.1715   90.1832   11.2302 Cl      1  UNL1       -0.0810
     36 C          64.1927   91.2097   13.3874 C.ar    1  UNL1        0.0138
     37 O          66.2126   93.1362   14.8791 O.co2   1  UNL1       -0.5446
     38 C          65.2139   92.2363   15.5445 C.2     1  UNL1        0.0729
     39 O          64.7705   92.5173   16.9497 O.co2   1  UNL1       -0.5446
@<TRIPOS>UNITY_ATOM_ATTR
37 1
charge -1
@<TRIPOS>BOND
     1    37    38   ar
     2    38    39   ar
     3    38    30    1
     4    30    31   ar
     5    31    32   ar
     6    32    33   ar
     7    33    26    1
     8    26    27   am
     9    27    28    2
    10    27     1    1
    11     1    20    1
    12    20    21    1
    13    21    22    1
    14    22    23    1
    15    23    24    1
    16    24    25    1
    17     1     2    1
    18     2     3   ar
    19     3    13    1
    20    13    14   ar
    21    14    15   ar
    22    15    16   ar
    23    16    17    1
    24    16    18   ar
    25    18    19   ar
    26     3     4   ar
    27     4     5   ar
    28     5     6   ar
    29     6     7   ar
    30     7     8    1
    31     7     9   ar
    32     9    10    1
    33     9    11   ar
    34    11    12   ar
    35    33    34   ar
    36    34    35    1
    37    34    36   ar
    38    36    30   ar
    39    25    20    1
    40    12     2   ar
    41    19    13   ar
    42    12     5   ar
    43    26    29    1
@<TRIPOS>MOLECULE
*****
 39 43 0 0 0
SMALL
GASTEIGER

@<TRIPOS>ATOM
      1 C          63.0739   88.9843   12.3716 C.3     1  UNL1        0.1631
      2 N          63.9386   89.9823   13.0831 N.ar    1  UNL1       -0.3047
      3 C          64.3056   89.9528   14.5372 C.ar    1  UNL1        0.1441
      4 N          65.1820   91.1373   14.8183 N.ar    1  UNL1       -0.2267
      5 C          65.3566   91.8988   13.5378 C.ar    1  UNL1        0.1010
      6 C          66.1161   93.1501   13.2098 C.ar    1  UNL1        0.0526
      7 C          66.1071   93.6875   11.8094 C.ar    1  UNL1        0.1690
      8 F          66.8667   94.9388   11.4814 F       1  UNL1       -0.2017
      9 C          65.3387   92.9737   10.7370 C.ar    1  UNL1        0.1689
     10 F          65.3298   93.5111    9.3366 F       1  UNL1       -0.2017
     11 C          64.5793   91.7225   11.0650 C.ar    1  UNL1        0.0507
     12 C          64.5882   91.1850   12.4654 C.ar    1  UNL1        0.0816
     13 C          63.8723   88.9201   15.5351 C.ar    1  UNL1        0.0342
     14 C          64.2418   87.4805   15.3330 C.ar    1  UNL1        0.0039
     15 C          63.8085   86.4478   16.3309 C.ar    1  UNL1        0.0115
     16 C          63.0056   86.8547   17.5308 C.ar    1  UNL1        0.0577
     17 CL         62.5723   85.8219   18.5287 Cl      1  UNL1       -0.0822
     18 C          62.6361   88.2944   17.7328 C.ar    1  UNL1        0.0115
     19 C          63.0694   89.3271   16.7351 C.ar    1  UNL1        0.0039
     20 C          61.9872   89.4549   11.4510 C.3     1  UNL1        0.0297
     21 C          62.1251   89.2657    9.9694 C.3     1  UNL1        0.0024
     22 C          61.0383   89.7362    9.0489 C.3     1  UNL1        0.0001
     23 C          59.8136   90.3961    9.6098 C.3     1  UNL1        0.0000
     24 C          59.6757   90.5853   11.0915 C.3     1  UNL1        0.0001
     25 C          60.7624   90.1147   12.0120 C.3     1  UNL1        0.0024
     26 N          62.2497   86.5303   12.1513 N.am    1  UNL1       -0.2817
     27 C          63.2959   87.5156   12.5807 C.2     1  UNL1        0.2468
     28 O          64.5642   87.0322   13.2193 O.2     1  UNL1       -0.2727
     29 H          61.4172   86.8475   11.7321 H       1  UNL1        0.1549
     30 C          62.9159   82.1243   12.7789 C.ar    1  UNL1        0.0149
     31 C          62.5320   82.9972   13.9368 C.ar    1  UNL1        0.0025
     32 C          62.3100   84.4659   13.7275 C.ar    1  UNL1        0.0156
     33 C          62.4717   85.0616   12.3604 C.ar    1  UNL1        0.0610
     34 C          62.8556   84.1887   11.2025 C.ar    1  UNL1        0.0711
     35 CL         63.0173   84.7844    9.8354 Cl      1  UNL1       -0.0810
     36 C          63.0776   82.7201   11.4118 C.ar    1  UNL1        0.0138
     37 O          63.7749   80.1663   14.2549 O.co2   1  UNL1       -0.5446
     38 C          63.1379   80.6557   12.9880 C.2     1  UNL1        0.0729
     39 O          62.7231   79.6764   11.9303 O.co2   1  UNL1       -0.5446
@<TRIPOS>UNITY_ATOM_ATTR
37 1
charge -1
@<TRIPOS>BOND
     1    37    38   ar
     2    38    39   ar
     3    38    30    1
     4    30    31   ar
     5    31    32   ar
     6    32    33   ar
     7    33    26    1
     8    26    27   am
     9    27    28    2
    10    27     1    1
    11     1    20    1
    12    20    21    1
    13    21    22    1
    14    22    23    1
    15    23    24    1
    16    24    25    1
    17     1     2    1
    18     2     3   ar
    19     3    13    1
    20    13    14   ar
    21    14    15   ar
    22    15    16   ar
    23    16    17    1
    24    16    18   ar
    25    18    19   ar
    26     3     4   ar
    27     4     5   ar
    28     5     6   ar
    29     6     7   ar
    30     7     8    1
    31     7     9   ar
    32     9    10    1
    33     9    11   ar
    34    11    12   ar
    35    33    34   ar
    36    34    35    1
    37    34    36   ar
    38    36    30   ar
    39    25    20    1
    40    12     2   ar
    41    19    13   ar
    42    12     5   ar
    43    26    29    1
@<TRIPOS>MOLECULE
*****
 39 43 0 0 0
SMALL
GASTEIGER

@<TRIPOS>ATOM
      1 C          61.2352   94.1710   -1.1873 C.3     1  UNL1        0.1631
      2 N          60.3737   94.3671   -2.3995 N.ar    1  UNL1       -0.3047
      3 C          60.8306   94.2965   -3.8265 C.ar    1  UNL1        0.1441
      4 N          59.6435   94.5541   -4.7065 N.ar    1  UNL1       -0.2267
      5 C          58.4530   94.7839   -3.8234 C.ar    1  UNL1        0.1010
      6 C          57.0163   95.0834   -4.1333 C.ar    1  UNL1        0.0526
      7 C          56.0309   95.2674   -3.0174 C.ar    1  UNL1        0.1690
      8 F          54.5941   95.5670   -3.3274 F       1  UNL1       -0.2017
      9 C          56.4822   95.1519   -1.5916 C.ar    1  UNL1        0.1689
     10 F          55.4968   95.3359   -0.4757 F       1  UNL1       -0.2017
     11 C          57.9189   94.8524   -1.2817 C.ar    1  UNL1        0.0507
     12 C          58.9043   94.6684   -2.3975 C.ar    1  UNL1        0.0816
     13 C          62.2290   94.0173   -4.2918 C.ar    1  UNL1        0.0342
     14 C          62.9200   92.7532   -3.8741 C.ar    1  UNL1        0.0039
     15 C          64.3185   92.4741   -4.3393 C.ar    1  UNL1        0.0115
     16 C          65.0258   93.4589   -5.2223 C.ar    1  UNL1        0.0577
     17 CL         66.4242   93.1796   -5.6875 Cl      1  UNL1       -0.0822
     18 C          64.3347   94.7230   -5.6400 C.ar    1  UNL1        0.0115
     19 C          62.9363   95.0022   -5.1748 C.ar    1  UNL1        0.0039
     20 C          62.5883   94.8144   -1.1166 C.3     1  UNL1        0.0297
     21 C          62.7823   96.2111   -1.6280 C.3     1  UNL1        0.0024
     22 C          64.1355   96.8544   -1.5573 C.3     1  UNL1        0.0001
     23 C          65.2947   96.1011   -0.9753 C.3     1  UNL1        0.0000
     24 C          65.1007   94.7043   -0.4638 C.3     1  UNL1        0.0001
     25 C          63.7475   94.0610   -0.5345 C.3     1  UNL1        0.0024
     26 N          61.0973   93.7013    1.3643 N.am    1  UNL1       -0.2817
     27 C          60.7434   93.3314   -0.0456 C.2     1  UNL1        0.2468
     28 O          59.8977   92.1219   -0.3139 O.2     1  UNL1       -0.2727
     29 H          61.6523   94.4952    1.5404 H       1  UNL1        0.1549
     30 C          59.6218   91.1826    4.7891 C.ar    1  UNL1        0.0149
     31 C          58.6656   92.0599    4.0369 C.ar    1  UNL1        0.0025
     32 C          59.1574   92.8996    2.8952 C.ar    1  UNL1        0.0156
     33 C          60.6055   92.8618    2.5059 C.ar    1  UNL1        0.0610
     34 C          61.5618   91.9844    3.2581 C.ar    1  UNL1        0.0711
     35 CL         63.0099   91.9466    2.8687 Cl      1  UNL1       -0.0810
     36 C          61.0699   91.1448    4.3997 C.ar    1  UNL1        0.0138
     37 O          60.1113   89.6647    6.8400 O.co2   1  UNL1       -0.5446
     38 C          59.1300   90.3430    5.9306 C.2     1  UNL1        0.0729
     39 O          57.6569   90.1817    6.1628 O.co2   1  UNL1       -0.5446
@<TRIPOS>UNITY_ATOM_ATTR
37 1
charge -1
@<TRIPOS>BOND
     1    37    38   ar
     2    38    39   ar
     3    38    30    1
     4    30    31   ar
     5    31    32   ar
     6    32    33   ar
     7    33    26    1
     8    26    27   am
     9    27    28    2
    10    27     1    1
    11     1    20    1
    12    20    21    1
    13    21    22    1
    14    22    23    1
    15    23    24    1
    16    24    25    1
    17     1     2    1
    18     2     3   ar
    19     3    13    1
    20    13    14   ar
    21    14    15   ar
    22    15    16   ar
    23    16    17    1
    24    16    18   ar
    25    18    19   ar
    26     3     4   ar
    27     4     5   ar
    28     5     6   ar
    29     6     7   ar
    30     7     8    1
    31     7     9   ar
    32     9    10    1
    33     9    11   ar
    34    11    12   ar
    35    33    34   ar
    36    34    35    1
    37    34    36   ar
    38    36    30   ar
    39    25    20    1
    40    12     2   ar
    41    19    13   ar
    42    12     5   ar
    43    26    29    1
@<TRIPOS>MOLECULE
*****
 39 43 0 0 0
SMALL
GASTEIGER

@<TRIPOS>ATOM
      1 C          63.3776   89.3431   13.0082 C.3     1  UNL1        0.1631
      2 N          63.6364   90.3430   11.9205 N.ar    1  UNL1       -0.3047
      3 C          62.9818   90.3670   10.5710 C.ar    1  UNL1        0.1441
      4 N          63.5360   91.5333    9.8078 N.ar    1  UNL1       -0.2267
      5 C          64.5330   92.2301   10.6855 C.ar    1  UNL1        0.1010
      6 C          65.3924   93.4395   10.4645 C.ar    1  UNL1        0.0526
      7 C          66.3138   93.9132   11.5491 C.ar    1  UNL1        0.1690
      8 F          67.1733   95.1226   11.3281 F       1  UNL1       -0.2017
      9 C          66.3759   93.1775   12.8549 C.ar    1  UNL1        0.1689
     10 F          67.2974   93.6512   13.9396 F       1  UNL1       -0.2017
     11 C          65.5165   91.9682   13.0759 C.ar    1  UNL1        0.0507
     12 C          64.5950   91.4945   11.9912 C.ar    1  UNL1        0.0816
     13 C          61.9536   89.3953   10.0724 C.ar    1  UNL1        0.0342
     14 C          60.4938   89.6961   10.2404 C.ar    1  UNL1        0.0039
     15 C          59.4656   88.7244    9.7418 C.ar    1  UNL1        0.0115
     16 C          59.8973   87.4519    9.0753 C.ar    1  UNL1        0.0577
     17 CL         58.8690   86.4802    8.5767 Cl      1  UNL1       -0.0822
     18 C          61.3572   87.1510    8.9074 C.ar    1  UNL1        0.0115
     19 C          62.3853   88.1227    9.4060 C.ar    1  UNL1        0.0039
     20 C          63.4246   89.7693   14.4455 C.3     1  UNL1        0.0297
     21 C          63.8106   91.1751   14.7988 C.3     1  UNL1        0.0024
     22 C          63.8576   91.6012   16.2362 C.3     1  UNL1        0.0001
     23 C          63.5186   90.6217   17.3204 C.3     1  UNL1        0.0000
     24 C          63.1325   89.2159   16.9672 C.3     1  UNL1        0.0001
     25 C          63.0856   88.7897   15.5298 C.3     1  UNL1        0.0024
     26 N          64.0030   86.8226   13.0897 N.am    1  UNL1       -0.2817
     27 C          63.0719   87.9167   12.6585 C.2     1  UNL1        0.2468
     28 O          61.8350   87.5845   11.8777 O.2     1  UNL1       -0.2727
     29 H          64.8149   87.0406   13.6022 H       1  UNL1        0.1549
     30 C          63.0855   82.5439   12.0405 C.ar    1  UNL1        0.0149
     31 C          63.0092   83.6077   10.9858 C.ar    1  UNL1        0.0025
     32 C          63.3151   85.0340   11.3355 C.ar    1  UNL1        0.0156
     33 C          63.6972   85.3964   12.7401 C.ar    1  UNL1        0.0610
     34 C          63.7735   84.3326   13.7948 C.ar    1  UNL1        0.0711
     35 CL         64.1557   84.6950   15.1993 Cl      1  UNL1       -0.0810
     36 C          63.4677   82.9064   13.4450 C.ar    1  UNL1        0.0138
     37 O          62.9204   80.6461   10.2738 O.co2   1  UNL1       -0.5446
     38 C          62.7797   81.1177   11.6908 C.2     1  UNL1        0.0729
     39 O          62.3332   80.1630   12.7582 O.co2   1  UNL1       -0.5446
@<TRIPOS>UNITY_ATOM_ATTR
37 1
charge -1
@<TRIPOS>BOND
     1    37    38   ar
     2    38    39   ar
     3    38    30    1
     4    30    31   ar
     5    31    32   ar
     6    32    33   ar
     7    33    26    1
     8    26    27   am
     9    27    28    2
    10    27     1    1
    11     1    20    1
    12    20    21    1
    13    21    22    1
    14    22    23    1
    15    23    24    1
    16    24    25    1
    17     1     2    1
    18     2     3   ar
    19     3    13    1
    20    13    14   ar
    21    14    15   ar
    22    15    16   ar
    23    16    17    1
    24    16    18   ar
    25    18    19   ar
    26     3     4   ar
    27     4     5   ar
    28     5     6   ar
    29     6     7   ar
    30     7     8    1
    31     7     9   ar
    32     9    10    1
    33     9    11   ar
    34    11    12   ar
    35    33    34   ar
    36    34    35    1
    37    34    36   ar
    38    36    30   ar
    39    25    20    1
    40    12     2   ar
    41    19    13   ar
    42    12     5   ar
    43    26    29    1
