@<TRIPOS>MOLECULE
*****
 34 37 0 0 0
SMALL
GASTEIGER

@<TRIPOS>ATOM
      1 C          62.4653   87.7552   11.3051 C.3     1  UNL1        0.1532
      2 O          62.3046   90.0844   10.1653 O.2     1  UNL1       -0.2731
      3 C          62.7583   89.2264   11.3089 C.2     1  UNL1        0.2439
      4 N          63.5049   89.8394   12.4564 N.am    1  UNL1       -0.2754
      5 C          63.9586   88.9813   13.6000 C.3     1  UNL1        0.1105
      6 C          64.7053   89.5943   14.7475 C.3     1  UNL1        0.0904
      7 N          64.9983   91.0655   14.7513 N.3     1  UNL1       -0.2946
      8 C          64.5446   91.9235   13.6077 C.3     1  UNL1        0.0904
      9 C          63.7979   91.3105   12.4602 C.3     1  UNL1        0.1105
     10 H          66.0119   91.1637   14.8091 H       1  UNL1        0.1233
     11 N          63.3888   86.8048   12.0078 N.am    1  UNL1       -0.2978
     12 C          62.8344   85.5975   12.7046 C.2     1  UNL1        0.2257
     13 O          61.3566   85.3408   12.6986 O.2     1  UNL1       -0.2748
     14 H          64.3588   86.9733   12.0117 H       1  UNL1        0.1498
     15 C          63.7580   84.6471   13.4072 C.3     1  UNL1        0.0884
     16 C          64.7472   84.1212   14.4047 C.3     1  UNL1        0.0135
     17 C          64.2678   85.5393   14.5001 C.3     1  UNL1        0.0135
     18 C          63.5690   83.4248   12.5585 C.ar    1  UNL1       -0.0040
     19 C          64.1905   83.3551   11.1952 C.ar    1  UNL1       -0.0021
     20 C          64.0015   82.1328   10.3464 C.ar    1  UNL1        0.0111
     21 C          63.1910   80.9804   10.8610 C.ar    1  UNL1        0.0585
     22 CL         63.0020   79.7581   10.0123 Cl      1  UNL1       -0.0822
     23 C          62.5695   81.0501   12.2245 C.ar    1  UNL1        0.0225
     24 C          62.7585   82.2724   13.0732 C.ar    1  UNL1        0.0550
     25 CL         62.1369   82.3422   14.4366 Cl      1  UNL1       -0.0825
     26 C          61.2488   87.2346   10.5987 C.3     1  UNL1        0.0562
     27 C          61.3966   86.4592    9.3231 C.ar    1  UNL1       -0.0094
     28 C          62.6819   85.7465    9.0233 C.ar    1  UNL1       -0.0025
     29 C          62.8297   84.9712    7.7477 C.ar    1  UNL1        0.0111
     30 C          61.6921   84.9087    6.7720 C.ar    1  UNL1        0.0585
     31 CL         61.8399   84.1333    5.4964 Cl      1  UNL1       -0.0822
     32 C          60.4068   85.6214    7.0718 C.ar    1  UNL1        0.0225
     33 C          60.2590   86.3967    8.3474 C.ar    1  UNL1        0.0546
     34 CL         58.9737   87.1094    8.6473 Cl      1  UNL1       -0.0825
@<TRIPOS>BOND
     1     2     3    2
     2     3     1    1
     3     1    26    1
     4    26    27    1
     5    27    28   ar
     6    28    29   ar
     7    29    30   ar
     8    30    31    1
     9    30    32   ar
    10    32    33   ar
    11    33    34    1
    12     1    11    1
    13    11    12   am
    14    12    13    2
    15    12    15    1
    16    15    18    1
    17    18    19   ar
    18    19    20   ar
    19    20    21   ar
    20    21    22    1
    21    21    23   ar
    22    23    24   ar
    23    24    25    1
    24    15    16    1
    25    16    17    1
    26     3     4   am
    27     4     5    1
    28     5     6    1
    29     6     7    1
    30     7     8    1
    31     8     9    1
    32    33    27   ar
    33    17    15    1
    34     9     4    1
    35    24    18   ar
    36    11    14    1
    37     7    10    1
@<TRIPOS>MOLECULE
*****
 34 37 0 0 0
SMALL
GASTEIGER

@<TRIPOS>ATOM
      1 C          62.4739   88.4192   11.5869 C.3     1  UNL1        0.1532
      2 O          59.8859   88.2714   11.4122 O.2     1  UNL1       -0.2731
      3 C          61.2457   87.9064   10.8950 C.2     1  UNL1        0.2439
      4 N          61.3775   87.0287    9.6858 N.am    1  UNL1       -0.2754
      5 C          62.7374   86.6637    9.1685 C.3     1  UNL1        0.1105
      6 C          62.8692   85.7860    7.9593 C.3     1  UNL1        0.0904
      7 N          61.6411   85.2732    7.2673 N.3     1  UNL1       -0.2946
      8 C          60.2812   85.6382    7.7846 C.3     1  UNL1        0.0904
      9 C          60.1494   86.5159    8.9938 C.3     1  UNL1        0.1105
     10 H          61.6982   84.2549    7.2822 H       1  UNL1        0.1233
     11 N          63.3760   87.4683   12.3162 N.am    1  UNL1       -0.2978
     12 C          62.8755   86.1087   12.7052 C.2     1  UNL1        0.2257
     13 O          61.4730   85.7002   12.3649 O.2     1  UNL1       -0.2748
     14 H          64.2966   87.7364   12.5396 H       1  UNL1        0.1498
     15 C          63.7777   85.1578   13.4345 C.3     1  UNL1        0.0884
     16 C          64.7461   84.6347   14.4535 C.3     1  UNL1        0.0135
     17 C          64.2820   86.0594   14.5221 C.3     1  UNL1        0.0135
     18 C          63.5867   83.9259   12.6002 C.ar    1  UNL1       -0.0040
     19 C          64.2012   83.8425   11.2344 C.ar    1  UNL1       -0.0021
     20 C          64.0102   82.6106   10.4001 C.ar    1  UNL1        0.0111
     21 C          63.2048   81.4622   10.9316 C.ar    1  UNL1        0.0585
     22 CL         63.0139   80.2303   10.0973 Cl      1  UNL1       -0.0822
     23 C          62.5904   81.5457   12.2975 C.ar    1  UNL1        0.0225
     24 C          62.7813   82.7776   13.1317 C.ar    1  UNL1        0.0550
     25 CL         62.1669   82.8610   14.4976 Cl      1  UNL1       -0.0825
     26 C          62.7998   89.8829   11.5496 C.3     1  UNL1        0.0562
     27 C          63.6793   90.4826   12.6065 C.ar    1  UNL1       -0.0094
     28 C          63.5930   89.9918   14.0213 C.ar    1  UNL1       -0.0025
     29 C          64.4724   90.5915   15.0781 C.ar    1  UNL1        0.0111
     30 C          65.4381   91.6821   14.7201 C.ar    1  UNL1        0.0585
     31 CL         66.3175   92.2818   15.7771 Cl      1  UNL1       -0.0822
     32 C          65.5243   92.1730   13.3054 C.ar    1  UNL1        0.0225
     33 C          64.6449   91.5732   12.2486 C.ar    1  UNL1        0.0546
     34 CL         64.7311   92.0641   10.8337 Cl      1  UNL1       -0.0825
@<TRIPOS>BOND
     1     2     3    2
     2     3     1    1
     3     1    26    1
     4    26    27    1
     5    27    28   ar
     6    28    29   ar
     7    29    30   ar
     8    30    31    1
     9    30    32   ar
    10    32    33   ar
    11    33    34    1
    12     1    11    1
    13    11    12   am
    14    12    13    2
    15    12    15    1
    16    15    18    1
    17    18    19   ar
    18    19    20   ar
    19    20    21   ar
    20    21    22    1
    21    21    23   ar
    22    23    24   ar
    23    24    25    1
    24    15    16    1
    25    16    17    1
    26     3     4   am
    27     4     5    1
    28     5     6    1
    29     6     7    1
    30     7     8    1
    31     8     9    1
    32    33    27   ar
    33    17    15    1
    34     9     4    1
    35    24    18   ar
    36    11    14    1
    37     7    10    1
@<TRIPOS>MOLECULE
*****
 34 37 0 0 0
SMALL
GASTEIGER

@<TRIPOS>ATOM
      1 C          63.4395   86.0792   13.4624 C.3     1  UNL1        0.1532
      2 O          61.6866   84.4427   14.4621 O.2     1  UNL1       -0.2731
      3 C          62.7487   84.7477   13.4478 C.2     1  UNL1        0.2439
      4 N          63.1201   83.7213   12.4189 N.am    1  UNL1       -0.2754
      5 C          64.1823   84.0264   11.4046 C.3     1  UNL1        0.1105
      6 C          64.5537   83.0001   10.3758 C.3     1  UNL1        0.0904
      7 N          63.8629   81.6686   10.3612 N.3     1  UNL1       -0.2946
      8 C          62.8008   81.3636   11.3754 C.3     1  UNL1        0.0904
      9 C          62.4294   82.3900   12.4043 C.3     1  UNL1        0.1105
     10 H          64.5878   80.9596   10.4716 H       1  UNL1        0.1233
     11 N          63.3665   86.9751   12.2616 N.am    1  UNL1       -0.2978
     12 C          62.0809   87.1050   11.4998 C.2     1  UNL1        0.2257
     13 O          60.8683   86.3389   11.9388 O.2     1  UNL1       -0.2748
     14 H          64.1624   87.4779   11.9735 H       1  UNL1        0.1498
     15 C          62.0079   88.0010   10.2990 C.3     1  UNL1        0.0884
     16 C          61.9927   89.2535    9.4738 C.3     1  UNL1        0.0135
     17 C          62.1491   89.3386   10.9631 C.3     1  UNL1        0.0135
     18 C          61.8414   86.9746    9.2179 C.ar    1  UNL1       -0.0040
     19 C          63.0064   86.1251    8.8046 C.ar    1  UNL1       -0.0021
     20 C          62.8399   85.0986    7.7234 C.ar    1  UNL1        0.0111
     21 C          61.5085   84.9219    7.0557 C.ar    1  UNL1        0.0585
     22 CL         61.3420   83.8955    5.9746 Cl      1  UNL1       -0.0822
     23 C          60.3434   85.7715    7.4691 C.ar    1  UNL1        0.0225
     24 C          60.5099   86.7978    8.5502 C.ar    1  UNL1        0.0550
     25 CL         59.3449   87.6474    8.9636 Cl      1  UNL1       -0.0825
     26 C          64.2032   86.5146   14.6778 C.3     1  UNL1        0.0562
     27 C          64.1018   87.9315   15.1596 C.ar    1  UNL1       -0.0094
     28 C          64.7123   89.0421   14.3573 C.ar    1  UNL1       -0.0025
     29 C          64.6108   90.4589   14.8391 C.ar    1  UNL1        0.0111
     30 C          63.8988   90.7652   16.1233 C.ar    1  UNL1        0.0585
     31 CL         63.7973   92.1821   16.6052 Cl      1  UNL1       -0.0822
     32 C          63.2882   89.6546   16.9257 C.ar    1  UNL1        0.0225
     33 C          63.3897   88.2378   16.4438 C.ar    1  UNL1        0.0546
     34 CL         62.7792   87.1271   17.2462 Cl      1  UNL1       -0.0825
@<TRIPOS>BOND
     1     2     3    2
     2     3     1    1
     3     1    26    1
     4    26    27    1
     5    27    28   ar
     6    28    29   ar
     7    29    30   ar
     8    30    31    1
     9    30    32   ar
    10    32    33   ar
    11    33    34    1
    12     1    11    1
    13    11    12   am
    14    12    13    2
    15    12    15    1
    16    15    18    1
    17    18    19   ar
    18    19    20   ar
    19    20    21   ar
    20    21    22    1
    21    21    23   ar
    22    23    24   ar
    23    24    25    1
    24    15    16    1
    25    16    17    1
    26     3     4   am
    27     4     5    1
    28     5     6    1
    29     6     7    1
    30     7     8    1
    31     8     9    1
    32    33    27   ar
    33    17    15    1
    34     9     4    1
    35    24    18   ar
    36    11    14    1
    37     7    10    1
@<TRIPOS>MOLECULE
*****
 34 37 0 0 0
SMALL
GASTEIGER

@<TRIPOS>ATOM
      1 C          62.1353   87.9434   10.9568 C.3     1  UNL1        0.1532
      2 O          62.2903   90.2898    9.8521 O.2     1  UNL1       -0.2731
      3 C          61.6741   88.9239    9.9195 C.2     1  UNL1        0.2439
      4 N          60.5967   88.5385    8.9497 N.am    1  UNL1       -0.2754
      5 C          59.9805   87.1725    9.0171 C.3     1  UNL1        0.1105
      6 C          58.9031   86.7870    8.0473 C.3     1  UNL1        0.0904
      7 N          58.4419   87.7675    7.0099 N.3     1  UNL1       -0.2946
      8 C          59.0581   89.1334    6.9425 C.3     1  UNL1        0.0904
      9 C          60.1355   89.5189    7.9124 C.3     1  UNL1        0.1105
     10 H          57.4416   87.9026    7.1567 H       1  UNL1        0.1233
     11 N          63.2440   88.3126   11.8974 N.am    1  UNL1       -0.2978
     12 C          63.0419   89.4085   12.9015 C.2     1  UNL1        0.2257
     13 O          61.7313   90.1352   12.9650 O.2     1  UNL1       -0.2748
     14 H          64.1042   87.8356   11.8557 H       1  UNL1        0.1498
     15 C          64.1506   89.7777   13.8420 C.3     1  UNL1        0.0884
     16 C          65.3641   90.4702   14.3877 C.3     1  UNL1        0.0135
     17 C          64.8377   90.8368   13.0318 C.3     1  UNL1        0.0135
     18 C          63.8486   88.8468   14.9788 C.ar    1  UNL1       -0.0040
     19 C          64.0973   87.3752   14.8293 C.ar    1  UNL1       -0.0021
     20 C          63.7953   86.4443   15.9661 C.ar    1  UNL1        0.0111
     21 C          63.2447   86.9850   17.2523 C.ar    1  UNL1        0.0585
     22 CL         62.9427   86.0542   18.3891 Cl      1  UNL1       -0.0822
     23 C          62.9960   88.4568   17.4018 C.ar    1  UNL1        0.0225
     24 C          63.2980   89.3876   16.2650 C.ar    1  UNL1        0.0550
     25 CL         63.0493   90.8593   16.4144 Cl      1  UNL1       -0.0825
     26 C          61.4879   86.5938   11.0536 C.3     1  UNL1        0.0562
     27 C          62.3208   85.3819   11.3495 C.ar    1  UNL1       -0.0094
     28 C          62.4084   84.8562   12.7516 C.ar    1  UNL1       -0.0025
     29 C          63.2413   83.6443   13.0475 C.ar    1  UNL1        0.0111
     30 C          63.9865   82.9581   11.9412 C.ar    1  UNL1        0.0585
     31 CL         64.8195   81.7461   12.2372 Cl      1  UNL1       -0.0822
     32 C          63.8989   83.4838   10.5391 C.ar    1  UNL1        0.0225
     33 C          63.0661   84.6957   10.2433 C.ar    1  UNL1        0.0546
     34 CL         62.9784   85.2215    8.8411 Cl      1  UNL1       -0.0825
@<TRIPOS>BOND
     1     2     3    2
     2     3     1    1
     3     1    26    1
     4    26    27    1
     5    27    28   ar
     6    28    29   ar
     7    29    30   ar
     8    30    31    1
     9    30    32   ar
    10    32    33   ar
    11    33    34    1
    12     1    11    1
    13    11    12   am
    14    12    13    2
    15    12    15    1
    16    15    18    1
    17    18    19   ar
    18    19    20   ar
    19    20    21   ar
    20    21    22    1
    21    21    23   ar
    22    23    24   ar
    23    24    25    1
    24    15    16    1
    25    16    17    1
    26     3     4   am
    27     4     5    1
    28     5     6    1
    29     6     7    1
    30     7     8    1
    31     8     9    1
    32    33    27   ar
    33    17    15    1
    34     9     4    1
    35    24    18   ar
    36    11    14    1
    37     7    10    1
@<TRIPOS>MOLECULE
*****
 34 37 0 0 0
SMALL
GASTEIGER

@<TRIPOS>ATOM
      1 C          63.8595   84.9053   13.6231 C.3     1  UNL1        0.1532
      2 O          62.6025   83.6308   15.5061 O.2     1  UNL1       -0.2731
      3 C          63.2147   84.8940   14.9775 C.2     1  UNL1        0.2439
      4 N          63.1821   86.1459   15.8031 N.am    1  UNL1       -0.2754
      5 C          63.7944   87.4091   15.2744 C.3     1  UNL1        0.1105
      6 C          63.7618   88.6610   16.1000 C.3     1  UNL1        0.0904
      7 N          63.1170   88.6497   17.4544 N.3     1  UNL1       -0.2946
      8 C          62.5049   87.3865   17.9830 C.3     1  UNL1        0.0904
      9 C          62.5374   86.1346   17.1574 C.3     1  UNL1        0.1105
     10 H          62.3756   89.3498   17.4334 H       1  UNL1        0.1233
     11 N          63.6268   86.0576   12.6913 N.am    1  UNL1       -0.2978
     12 C          62.5328   85.9851   11.6676 C.2     1  UNL1        0.2257
     13 O          61.6716   84.7605   11.5756 O.2     1  UNL1       -0.2748
     14 H          64.1920   86.8613   12.7517 H       1  UNL1        0.1498
     15 C          62.3001   87.1373   10.7358 C.3     1  UNL1        0.0884
     16 C          62.1482   88.5480   10.2491 C.3     1  UNL1        0.0135
     17 C          62.4518   88.2817   11.6937 C.3     1  UNL1        0.0135
     18 C          62.0677   86.3932    9.4543 C.ar    1  UNL1       -0.0040
     19 C          63.1877   85.6223    8.8210 C.ar    1  UNL1       -0.0021
     20 C          62.9553   84.8781    7.5394 C.ar    1  UNL1        0.0111
     21 C          61.6028   84.9050    6.8913 C.ar    1  UNL1        0.0585
     22 CL         61.3704   84.1608    5.6098 Cl      1  UNL1       -0.0822
     23 C          60.4827   85.6759    7.5247 C.ar    1  UNL1        0.0225
     24 C          60.7152   86.4200    8.8062 C.ar    1  UNL1        0.0550
     25 CL         59.5951   87.1910    9.4396 Cl      1  UNL1       -0.0825
     26 C          64.7369   83.7645   13.2006 C.3     1  UNL1        0.0562
     27 C          64.2034   82.7104   12.2761 C.ar    1  UNL1       -0.0094
     28 C          64.3377   82.8772   10.7915 C.ar    1  UNL1       -0.0025
     29 C          63.8042   81.8232    9.8672 C.ar    1  UNL1        0.0111
     30 C          63.1366   80.6024   10.4275 C.ar    1  UNL1        0.0585
     31 CL         62.6031   79.5484    9.5030 Cl      1  UNL1       -0.0822
     32 C          63.0023   80.4356   11.9121 C.ar    1  UNL1        0.0225
     33 C          63.5358   81.4896   12.8364 C.ar    1  UNL1        0.0546
     34 CL         63.4015   81.3229   14.3211 Cl      1  UNL1       -0.0825
@<TRIPOS>BOND
     1     2     3    2
     2     3     1    1
     3     1    26    1
     4    26    27    1
     5    27    28   ar
     6    28    29   ar
     7    29    30   ar
     8    30    31    1
     9    30    32   ar
    10    32    33   ar
    11    33    34    1
    12     1    11    1
    13    11    12   am
    14    12    13    2
    15    12    15    1
    16    15    18    1
    17    18    19   ar
    18    19    20   ar
    19    20    21   ar
    20    21    22    1
    21    21    23   ar
    22    23    24   ar
    23    24    25    1
    24    15    16    1
    25    16    17    1
    26     3     4   am
    27     4     5    1
    28     5     6    1
    29     6     7    1
    30     7     8    1
    31     8     9    1
    32    33    27   ar
    33    17    15    1
    34     9     4    1
    35    24    18   ar
    36    11    14    1
    37     7    10    1
@<TRIPOS>MOLECULE
*****
 34 37 0 0 0
SMALL
GASTEIGER

@<TRIPOS>ATOM
      1 C          63.8647   84.9916   13.2055 C.3     1  UNL1        0.1532
      2 O          65.2344   83.3593   11.7190 O.2     1  UNL1       -0.2731
      3 C          64.1036   83.6101   12.6720 C.2     1  UNL1        0.2439
      4 N          63.2116   82.4795   13.0916 N.am    1  UNL1       -0.2754
      5 C          62.0808   82.7303   14.0447 C.3     1  UNL1        0.1105
      6 C          61.1888   81.5997   14.4643 C.3     1  UNL1        0.0904
      7 N          61.4277   80.2182   13.9308 N.3     1  UNL1       -0.2946
      8 C          62.5585   79.9674   12.9778 C.3     1  UNL1        0.0904
      9 C          63.4505   81.0981   12.5582 C.3     1  UNL1        0.1105
     10 H          60.5720   79.9348   13.4535 H       1  UNL1        0.1233
     11 N          63.5364   86.1126   12.2644 N.am    1  UNL1       -0.2978
     12 C          62.3749   85.9863   11.3237 C.2     1  UNL1        0.2257
     13 O          61.5417   84.7390   11.3240 O.2     1  UNL1       -0.2748
     14 H          64.0833   86.9312   12.2642 H       1  UNL1        0.1498
     15 C          62.0466   87.1073   10.3826 C.3     1  UNL1        0.0884
     16 C          61.7678   88.4951    9.8864 C.3     1  UNL1        0.0135
     17 C          62.0749   88.2648   11.3364 C.3     1  UNL1        0.0135
     18 C          61.9043   86.3392    9.1021 C.ar    1  UNL1       -0.0040
     19 C          63.0880   85.6244    8.5209 C.ar    1  UNL1       -0.0021
     20 C          62.9457   84.8562    7.2403 C.ar    1  UNL1        0.0111
     21 C          61.6197   84.8030    6.5411 C.ar    1  UNL1        0.0585
     22 CL         61.4774   84.0349    5.2605 Cl      1  UNL1       -0.0822
     23 C          60.4360   85.5179    7.1224 C.ar    1  UNL1        0.0225
     24 C          60.5783   86.2859    8.4029 C.ar    1  UNL1        0.0550
     25 CL         59.3946   87.0008    8.9842 Cl      1  UNL1       -0.0825
     26 C          63.9540   85.2520   14.6800 C.3     1  UNL1        0.0562
     27 C          63.8316   86.6526   15.2031 C.ar    1  UNL1       -0.0094
     28 C          64.3816   87.8003   14.4093 C.ar    1  UNL1       -0.0025
     29 C          64.2592   89.2008   14.9324 C.ar    1  UNL1        0.0111
     30 C          63.5867   89.4535   16.2492 C.ar    1  UNL1        0.0585
     31 CL         63.4643   90.8540   16.7723 Cl      1  UNL1       -0.0822
     32 C          63.0367   88.3057   17.0429 C.ar    1  UNL1        0.0225
     33 C          63.1592   86.9052   16.5199 C.ar    1  UNL1        0.0546
     34 CL         62.6091   85.7574   17.3136 Cl      1  UNL1       -0.0825
@<TRIPOS>BOND
     1     2     3    2
     2     3     1    1
     3     1    26    1
     4    26    27    1
     5    27    28   ar
     6    28    29   ar
     7    29    30   ar
     8    30    31    1
     9    30    32   ar
    10    32    33   ar
    11    33    34    1
    12     1    11    1
    13    11    12   am
    14    12    13    2
    15    12    15    1
    16    15    18    1
    17    18    19   ar
    18    19    20   ar
    19    20    21   ar
    20    21    22    1
    21    21    23   ar
    22    23    24   ar
    23    24    25    1
    24    15    16    1
    25    16    17    1
    26     3     4   am
    27     4     5    1
    28     5     6    1
    29     6     7    1
    30     7     8    1
    31     8     9    1
    32    33    27   ar
    33    17    15    1
    34     9     4    1
    35    24    18   ar
    36    11    14    1
    37     7    10    1
@<TRIPOS>MOLECULE
*****
 34 37 0 0 0
SMALL
GASTEIGER

@<TRIPOS>ATOM
      1 C          62.7488   87.2900   11.6438 C.3     1  UNL1        0.1532
      2 O          61.4563   85.0642   11.2892 O.2     1  UNL1       -0.2731
      3 C          62.4683   85.8723   12.0460 C.2     1  UNL1        0.2439
      4 N          63.1999   85.2628   13.2050 N.am    1  UNL1       -0.2754
      5 C          64.2120   86.0710   13.9618 C.3     1  UNL1        0.1105
      6 C          64.9436   85.4615   15.1208 C.3     1  UNL1        0.0904
      7 N          64.6631   84.0438   15.5230 N.3     1  UNL1       -0.2946
      8 C          63.6511   83.2358   14.7662 C.3     1  UNL1        0.0904
      9 C          62.9195   83.8452   13.6072 C.3     1  UNL1        0.1105
     10 H          64.3529   84.0692   16.4944 H       1  UNL1        0.1233
     11 N          63.5151   88.1930   12.5643 N.am    1  UNL1       -0.2978
     12 C          62.8507   89.4019   13.1536 C.2     1  UNL1        0.2257
     13 O          61.4200   89.7076   12.8225 O.2     1  UNL1       -0.2748
     14 H          64.4541   87.9924   12.7816 H       1  UNL1        0.1498
     15 C          63.6170   90.3050   14.0740 C.3     1  UNL1        0.0884
     16 C          64.1127   90.9317   15.3435 C.3     1  UNL1        0.0135
     17 C          63.1041   89.8228   15.3987 C.3     1  UNL1        0.0135
     18 C          64.3960   91.1008   13.0691 C.ar    1  UNL1       -0.0040
     19 C          63.7854   91.4339   11.7402 C.ar    1  UNL1       -0.0021
     20 C          64.5645   92.2297   10.7352 C.ar    1  UNL1        0.0111
     21 C          65.9540   92.6924   11.0593 C.ar    1  UNL1        0.0585
     22 CL         66.7330   93.4882   10.0544 Cl      1  UNL1       -0.0822
     23 C          66.5645   92.3593   12.3884 C.ar    1  UNL1        0.0225
     24 C          65.7855   91.5635   13.3933 C.ar    1  UNL1        0.0550
     25 CL         66.3961   91.2304   14.7223 Cl      1  UNL1       -0.0825
     26 C          62.2629   87.8044   10.3213 C.3     1  UNL1        0.0562
     27 C          62.0230   86.8514    9.1880 C.ar    1  UNL1       -0.0094
     28 C          63.1404   85.9849    8.6875 C.ar    1  UNL1       -0.0025
     29 C          62.9005   85.0319    7.5543 C.ar    1  UNL1        0.0111
     30 C          61.5432   84.9454    6.9216 C.ar    1  UNL1        0.0585
     31 CL         61.3032   83.9924    5.7883 Cl      1  UNL1       -0.0822
     32 C          60.4258   85.8119    7.4221 C.ar    1  UNL1        0.0225
     33 C          60.6657   86.7649    8.5553 C.ar    1  UNL1        0.0546
     34 CL         59.5483   87.6315    9.0560 Cl      1  UNL1       -0.0825
@<TRIPOS>BOND
     1     2     3    2
     2     3     1    1
     3     1    26    1
     4    26    27    1
     5    27    28   ar
     6    28    29   ar
     7    29    30   ar
     8    30    31    1
     9    30    32   ar
    10    32    33   ar
    11    33    34    1
    12     1    11    1
    13    11    12   am
    14    12    13    2
    15    12    15    1
    16    15    18    1
    17    18    19   ar
    18    19    20   ar
    19    20    21   ar
    20    21    22    1
    21    21    23   ar
    22    23    24   ar
    23    24    25    1
    24    15    16    1
    25    16    17    1
    26     3     4   am
    27     4     5    1
    28     5     6    1
    29     6     7    1
    30     7     8    1
    31     8     9    1
    32    33    27   ar
    33    17    15    1
    34     9     4    1
    35    24    18   ar
    36    11    14    1
    37     7    10    1
@<TRIPOS>MOLECULE
*****
 34 37 0 0 0
SMALL
GASTEIGER

@<TRIPOS>ATOM
      1 C          63.7773   90.3148   14.0697 C.3     1  UNL1        0.1532
      2 O          62.7432   90.4449   16.4496 O.2     1  UNL1       -0.2731
      3 C          63.3908   89.6477   15.3565 C.2     1  UNL1        0.2439
      4 N          63.6521   88.1833   15.5500 N.am    1  UNL1       -0.2754
      5 C          64.2998   87.3861   14.4568 C.3     1  UNL1        0.1105
      6 C          64.5611   85.9218   14.6504 C.3     1  UNL1        0.0904
      7 N          64.1746   85.2547   15.9372 N.3     1  UNL1       -0.2946
      8 C          63.5270   86.0519   17.0303 C.3     1  UNL1        0.0904
      9 C          63.2657   87.5162   16.8367 C.3     1  UNL1        0.1105
     10 H          65.0273   84.8554   16.3295 H       1  UNL1        0.1233
     11 N          65.2033   90.7137   13.8305 N.am    1  UNL1       -0.2978
     12 C          65.8088   91.8397   14.6152 C.2     1  UNL1        0.2257
     13 O          64.9882   92.5667   15.6389 O.2     1  UNL1       -0.2748
     14 H          65.7419   90.2366   13.1586 H       1  UNL1        0.1498
     15 C          67.2349   92.2387   14.3760 C.3     1  UNL1        0.0884
     16 C          68.7028   92.4343   14.6146 C.3     1  UNL1        0.0135
     17 C          67.8508   91.7916   15.6687 C.3     1  UNL1        0.0135
     18 C          67.1143   92.8243   13.0003 C.ar    1  UNL1       -0.0040
     19 C          66.2142   94.0004   12.7622 C.ar    1  UNL1       -0.0021
     20 C          66.0936   94.5861   11.3864 C.ar    1  UNL1        0.0111
     21 C          66.8731   93.9957   10.2490 C.ar    1  UNL1        0.0585
     22 CL         66.7525   94.5813    8.8733 Cl      1  UNL1       -0.0822
     23 C          67.7732   92.8196   10.4872 C.ar    1  UNL1        0.0225
     24 C          67.8938   92.2340   11.8629 C.ar    1  UNL1        0.0550
     25 CL         68.7939   91.0579   12.1011 Cl      1  UNL1       -0.0825
     26 C          62.7377   90.5829   13.0222 C.3     1  UNL1        0.0562
     27 C          62.2404   89.4642   12.1554 C.ar    1  UNL1       -0.0094
     28 C          63.0730   88.2300   11.9726 C.ar    1  UNL1       -0.0025
     29 C          62.5757   87.1114   11.1059 C.ar    1  UNL1        0.0111
     30 C          61.2458   87.2269   10.4219 C.ar    1  UNL1        0.0585
     31 CL         60.7485   86.1082    9.5551 Cl      1  UNL1       -0.0822
     32 C          60.4131   88.4611   10.6046 C.ar    1  UNL1        0.0225
     33 C          60.9104   89.5797   11.4714 C.ar    1  UNL1        0.0546
     34 CL         60.0778   90.8140   11.6542 Cl      1  UNL1       -0.0825
@<TRIPOS>BOND
     1     2     3    2
     2     3     1    1
     3     1    26    1
     4    26    27    1
     5    27    28   ar
     6    28    29   ar
     7    29    30   ar
     8    30    31    1
     9    30    32   ar
    10    32    33   ar
    11    33    34    1
    12     1    11    1
    13    11    12   am
    14    12    13    2
    15    12    15    1
    16    15    18    1
    17    18    19   ar
    18    19    20   ar
    19    20    21   ar
    20    21    22    1
    21    21    23   ar
    22    23    24   ar
    23    24    25    1
    24    15    16    1
    25    16    17    1
    26     3     4   am
    27     4     5    1
    28     5     6    1
    29     6     7    1
    30     7     8    1
    31     8     9    1
    32    33    27   ar
    33    17    15    1
    34     9     4    1
    35    24    18   ar
    36    11    14    1
    37     7    10    1
@<TRIPOS>MOLECULE
*****
 34 37 0 0 0
SMALL
GASTEIGER

@<TRIPOS>ATOM
      1 C          63.7897   86.5050   13.4367 C.3     1  UNL1        0.1532
      2 O          63.2556   85.9891   15.9264 O.2     1  UNL1       -0.2731
      3 C          63.5545   86.9794   14.8402 C.2     1  UNL1        0.2439
      4 N          63.6181   88.4441   15.1573 N.am    1  UNL1       -0.2754
      5 C          63.9171   89.4344   14.0710 C.3     1  UNL1        0.1105
      6 C          63.9807   90.8991   14.3882 C.3     1  UNL1        0.0904
      7 N          63.7455   91.3735   15.7916 N.3     1  UNL1       -0.2946
      8 C          63.4466   90.3833   16.8779 C.3     1  UNL1        0.0904
      9 C          63.3829   88.9186   16.5607 C.3     1  UNL1        0.1105
     10 H          62.9562   92.0187   15.7560 H       1  UNL1        0.1233
     11 N          63.4313   87.3864   12.2771 N.am    1  UNL1       -0.2978
     12 C          62.1820   87.1202   11.4907 C.2     1  UNL1        0.2257
     13 O          61.2912   85.9725   11.8638 O.2     1  UNL1       -0.2748
     14 H          64.0160   88.1397   12.0322 H       1  UNL1        0.1498
     15 C          61.8236   88.0016   10.3311 C.3     1  UNL1        0.0884
     16 C          61.4924   89.2391    9.5508 C.3     1  UNL1        0.0135
     17 C          61.7772   89.3330   11.0205 C.3     1  UNL1        0.0135
     18 C          61.7455   86.9763    9.2389 C.ar    1  UNL1       -0.0040
     19 C          62.9675   86.1962    8.8540 C.ar    1  UNL1       -0.0021
     20 C          62.8894   85.1709    7.7618 C.ar    1  UNL1        0.0111
     21 C          61.5894   84.9258    7.0547 C.ar    1  UNL1        0.0585
     22 CL         61.5114   83.9006    5.9626 Cl      1  UNL1       -0.0822
     23 C          60.3675   85.7060    7.4397 C.ar    1  UNL1        0.0225
     24 C          60.4456   86.7313    8.5319 C.ar    1  UNL1        0.0550
     25 CL         59.2236   87.5115    8.9169 Cl      1  UNL1       -0.0825
     26 C          64.3834   85.1493   13.1929 C.3     1  UNL1        0.0562
     27 C          63.5303   83.9224   13.3238 C.ar    1  UNL1       -0.0094
     28 C          62.8949   83.5878   14.6407 C.ar    1  UNL1       -0.0025
     29 C          62.0419   82.3609   14.7716 C.ar    1  UNL1        0.0111
     30 C          61.8243   81.4687   13.5856 C.ar    1  UNL1        0.0585
     31 CL         60.9712   80.2418   13.7165 Cl      1  UNL1       -0.0822
     32 C          62.4597   81.8033   12.2687 C.ar    1  UNL1        0.0225
     33 C          63.3127   83.0302   12.1378 C.ar    1  UNL1        0.0546
     34 CL         63.9482   83.3648   10.8209 Cl      1  UNL1       -0.0825
@<TRIPOS>BOND
     1     2     3    2
     2     3     1    1
     3     1    26    1
     4    26    27    1
     5    27    28   ar
     6    28    29   ar
     7    29    30   ar
     8    30    31    1
     9    30    32   ar
    10    32    33   ar
    11    33    34    1
    12     1    11    1
    13    11    12   am
    14    12    13    2
    15    12    15    1
    16    15    18    1
    17    18    19   ar
    18    19    20   ar
    19    20    21   ar
    20    21    22    1
    21    21    23   ar
    22    23    24   ar
    23    24    25    1
    24    15    16    1
    25    16    17    1
    26     3     4   am
    27     4     5    1
    28     5     6    1
    29     6     7    1
    30     7     8    1
    31     8     9    1
    32    33    27   ar
    33    17    15    1
    34     9     4    1
    35    24    18   ar
    36    11    14    1
    37     7    10    1
