@<TRIPOS>MOLECULE
*****
 56 61 0 0 0
SMALL
GASTEIGER

@<TRIPOS>ATOM
      1 N          61.2103   85.7383    8.1038 N.3     1  UNL1       -0.1862
      2 C          62.0938   84.6079    8.5415 C.3     1  UNL1        0.1775
      3 C          62.8413   84.6992    9.8388 C.2     1  UNL1        0.2452
      4 O          63.7249   83.5688   10.2764 O.2     1  UNL1       -0.2732
      5 N          62.7053   85.9209   10.6983 N.am    1  UNL1       -0.2541
      6 C          63.4529   86.0122   11.9956 C.3     1  UNL1        0.1577
      7 C          63.3169   87.2339   12.8552 C.2     1  UNL1        0.2445
      8 O          64.0644   87.3253   14.1524 O.2     1  UNL1       -0.2731
      9 N          62.4333   88.3644   12.4175 N.am    1  UNL1       -0.2705
     10 C          61.6858   88.2731   11.1202 C.3     1  UNL1        0.1359
     11 C          61.8219   87.0513   10.2606 C.3     1  UNL1        0.1908
     12 N          61.0743   86.9600    8.9634 N.am    1  UNL1       -0.1863
     13 C          60.1908   88.0905    8.5257 C.2     1  UNL1        0.3191
     14 O          60.0548   89.3122    9.3853 O.2     1  UNL1       -0.2512
     15 N          59.4433   87.9991    7.2284 N.am    1  UNL1       -0.2836
     16 H          59.5326   87.1973    6.6643 H       1  UNL1        0.1513
     17 C          60.4628   85.6470    6.8065 C.3     1  UNL1        0.1188
     18 C          62.0057   84.2773    5.2276 C.2     1  UNL1       -0.0034
     19 C          60.6782   84.4732    5.8978 C.2     1  UNL1       -0.0071
     20 C          64.3364   84.8819   12.4333 C.3     1  UNL1        0.0556
     21 C          63.7319   83.6439   13.0265 C.ar    1  UNL1       -0.0198
     22 C          64.0723   82.2974   12.4600 C.ar    1  UNL1       -0.0011
     23 C          63.4678   81.0594   13.0532 C.ar    1  UNL1        0.0363
     24 C          62.5229   81.1679   14.2130 C.ar    1  UNL1        0.1337
     25 O          61.9184   79.9299   14.8063 O.3     1  UNL1       -0.5055
     26 C          62.1823   82.5144   14.7797 C.ar    1  UNL1        0.0363
     27 C          62.7868   83.7524   14.1864 C.ar    1  UNL1       -0.0011
     28 H          62.1311   79.0888   14.4523 H       1  UNL1        0.2922
     29 C          62.2974   89.5861   13.2770 C.3     1  UNL1        0.1217
     30 C          63.4673   90.5063   13.4631 C.ar    1  UNL1        0.0135
     31 C          64.1319   90.6129   14.8037 C.ar    1  UNL1       -0.0012
     32 C          65.3018   91.5330   14.9898 C.ar    1  UNL1       -0.0002
     33 C          65.8071   92.3465   13.8354 C.ar    1  UNL1        0.0016
     34 C          65.1426   92.2399   12.4948 C.ar    1  UNL1        0.0214
     35 C          65.4167   92.9124   11.1824 C.ar    1  UNL1        0.0719
     36 C          64.4162   92.4080   10.1851 C.ar    1  UNL1        0.0805
     37 N          63.5238   91.4237   10.8812 N.ar    1  UNL1       -0.3241
     38 C          62.3828   90.6747   10.2591 C.3     1  UNL1        0.1305
     39 C          63.9727   91.3198   12.3087 C.ar    1  UNL1        0.0577
     40 C          66.5011   93.9137   10.9142 C.2     1  UNL1        0.2473
     41 O          67.9273   93.4628   10.8024 O.2     1  UNL1       -0.2701
     42 N          66.1591   95.3658   10.7579 N.am    1  UNL1       -0.3008
     43 H          65.2230   95.6617   10.8313 H       1  UNL1        0.1497
     44 C          67.2433   96.3671   10.4898 C.3     1  UNL1        0.0901
     45 C          67.5004   96.8371    9.0887 C.3     1  UNL1        0.0272
     46 C          66.8610   96.1294    7.9310 C.3     1  UNL1        0.0435
     47 C          65.5176   96.5714    7.4311 C.2     1  UNL1        0.0504
     48 O          64.4117   96.8558    8.4038 O.co2   1  UNL1       -0.5492
     49 O          65.2800   96.7291    5.9585 O.co2   1  UNL1       -0.5492
     50 C          58.5598   89.1295    6.7907 C.3     1  UNL1        0.1177
     51 C          59.0894   90.1770    5.8568 C.ar    1  UNL1       -0.0025
     52 C          60.5543   90.2263    5.5381 C.ar    1  UNL1       -0.0026
     53 C          61.0838   91.2738    4.6041 C.ar    1  UNL1       -0.0003
     54 C          60.1485   92.2720    3.9888 C.ar    1  UNL1       -0.0000
     55 C          58.6835   92.2228    4.3075 C.ar    1  UNL1       -0.0003
     56 C          58.1539   91.1753    5.2414 C.ar    1  UNL1       -0.0026
@<TRIPOS>UNITY_ATOM_ATTR
48 1
charge -1
@<TRIPOS>BOND
     1    18    19    2
     2    19    17    1
     3    17     1    1
     4     1     2    1
     5     2     3    1
     6     3     4    2
     7     3     5   am
     8     5     6    1
     9     6    20    1
    10    20    21    1
    11    21    22   ar
    12    22    23   ar
    13    23    24   ar
    14    24    25    1
    15    24    26   ar
    16    26    27   ar
    17     6     7    1
    18     7     8    2
    19     7     9   am
    20     9    29    1
    21    29    30    1
    22    30    31   ar
    23    31    32   ar
    24    32    33   ar
    25    33    34   ar
    26    34    35   ar
    27    35    40    1
    28    40    41    2
    29    40    42   am
    30    42    44    1
    31    44    45    1
    32    45    46    1
    33    46    47    1
    34    47    48   ar
    35    47    49   ar
    36    35    36   ar
    37    36    37   ar
    38    37    38    1
    39    37    39   ar
    40     9    10    1
    41    11    10    1
    42    11    12    1
    43    12    13   am
    44    13    14    2
    45    13    15   am
    46    15    50    1
    47    50    51    1
    48    51    52   ar
    49    52    53   ar
    50    53    54   ar
    51    54    55   ar
    52    55    56   ar
    53    12     1    1
    54    56    51   ar
    55    11     5    1
    56    27    21   ar
    57    39    30   ar
    58    39    34   ar
    59    25    28    1
    60    42    43    1
    61    15    16    1
@<TRIPOS>MOLECULE
*****
 56 61 0 0 0
SMALL
GASTEIGER

@<TRIPOS>ATOM
      1 N          62.8549   84.0486    9.4105 N.3     1  UNL1       -0.1862
      2 C          62.1586   84.1265    8.0842 C.3     1  UNL1        0.1775
      3 C          61.3347   85.3316    7.7393 C.2     1  UNL1        0.2452
      4 O          60.6384   85.4095    6.4130 O.2     1  UNL1       -0.2732
      5 N          61.2072   86.4588    8.7207 N.am    1  UNL1       -0.2541
      6 C          60.3833   87.6639    8.3758 C.3     1  UNL1        0.1577
      7 C          60.2558   88.7911    9.3572 C.2     1  UNL1        0.2445
      8 O          59.4319   89.9962    9.0123 O.2     1  UNL1       -0.2731
      9 N          60.9521   88.7133   10.6835 N.am    1  UNL1       -0.2705
     10 C          61.7760   87.5082   11.0284 C.3     1  UNL1        0.1359
     11 C          61.9035   86.3809   10.0470 C.3     1  UNL1        0.1908
     12 N          62.7274   85.1758   10.3918 N.am    1  UNL1       -0.1863
     13 C          63.4238   85.0980   11.7182 C.2     1  UNL1        0.3191
     14 O          63.2962   86.2251   12.6995 O.2     1  UNL1       -0.2512
     15 N          64.2476   83.8928   12.0631 N.am    1  UNL1       -0.2836
     16 H          64.3313   83.1530   11.4189 H       1  UNL1        0.1513
     17 C          63.6788   82.8435    9.7554 C.3     1  UNL1        0.1188
     18 C          62.7068   81.3607   11.6544 C.2     1  UNL1       -0.0034
     19 C          63.0073   81.5785   10.2010 C.2     1  UNL1       -0.0071
     20 C          59.6870   87.7419    7.0496 C.3     1  UNL1        0.0556
     21 C          59.5303   89.0654    6.3613 C.ar    1  UNL1       -0.0198
     22 C          58.1688   89.6775    6.2137 C.ar    1  UNL1       -0.0011
     23 C          58.0121   91.0010    5.5255 C.ar    1  UNL1        0.0363
     24 C          59.2169   91.7125    4.9849 C.ar    1  UNL1        0.1337
     25 O          59.0602   93.0361    4.2967 O.3     1  UNL1       -0.5055
     26 C          60.5784   91.1005    5.1325 C.ar    1  UNL1        0.0363
     27 C          60.7351   89.7769    5.8207 C.ar    1  UNL1       -0.0011
     28 H          58.2097   93.4184    4.2045 H       1  UNL1        0.2922
     29 C          60.8246   89.8405   11.6649 C.3     1  UNL1        0.1217
     30 C          61.9826   90.2010   12.5476 C.ar    1  UNL1        0.0135
     31 C          61.9654   89.8229   13.9991 C.ar    1  UNL1       -0.0012
     32 C          63.1233   90.1834   14.8818 C.ar    1  UNL1       -0.0002
     33 C          64.2984   90.9221   14.3131 C.ar    1  UNL1        0.0016
     34 C          64.3156   91.3002   12.8616 C.ar    1  UNL1        0.0214
     35 C          65.3281   92.0249   12.0251 C.ar    1  UNL1        0.0719
     36 C          64.7959   92.1122   10.6254 C.ar    1  UNL1        0.0805
     37 N          63.4546   91.4415   10.5969 N.ar    1  UNL1       -0.3241
     38 C          62.5660   91.2979    9.3969 C.3     1  UNL1        0.1305
     39 C          63.1577   90.9397   11.9789 C.ar    1  UNL1        0.0577
     40 C          66.6421   92.5670   12.5043 C.2     1  UNL1        0.2473
     41 O          67.0989   93.9256   12.0621 O.2     1  UNL1       -0.2701
     42 N          67.4992   91.7506   13.4255 N.am    1  UNL1       -0.3008
     43 H          67.1994   90.8589   13.7157 H       1  UNL1        0.1497
     44 C          68.8132   92.2926   13.9047 C.3     1  UNL1        0.0901
     45 C          68.9503   92.7912   15.3127 C.3     1  UNL1        0.0272
     46 C          67.9237   92.4223   16.3422 C.3     1  UNL1        0.0435
     47 C          66.5125   92.9114   16.2030 C.2     1  UNL1        0.0504
     48 O          66.1461   93.8346   15.0790 O.co2   1  UNL1       -0.5492
     49 O          65.4677   92.4774   17.1879 O.co2   1  UNL1       -0.5492
     50 C          64.9440   83.8149   13.3893 C.3     1  UNL1        0.1177
     51 C          64.3567   84.5022   14.5863 C.ar    1  UNL1       -0.0025
     52 C          64.8980   85.8288   15.0302 C.ar    1  UNL1       -0.0026
     53 C          64.3107   86.5160   16.2271 C.ar    1  UNL1       -0.0003
     54 C          63.1821   85.8766   16.9803 C.ar    1  UNL1       -0.0000
     55 C          62.6407   84.5499   16.5365 C.ar    1  UNL1       -0.0003
     56 C          63.2280   83.8627   15.3395 C.ar    1  UNL1       -0.0026
@<TRIPOS>UNITY_ATOM_ATTR
48 1
charge -1
@<TRIPOS>BOND
     1    18    19    2
     2    19    17    1
     3    17     1    1
     4     1     2    1
     5     2     3    1
     6     3     4    2
     7     3     5   am
     8     5     6    1
     9     6    20    1
    10    20    21    1
    11    21    22   ar
    12    22    23   ar
    13    23    24   ar
    14    24    25    1
    15    24    26   ar
    16    26    27   ar
    17     6     7    1
    18     7     8    2
    19     7     9   am
    20     9    29    1
    21    29    30    1
    22    30    31   ar
    23    31    32   ar
    24    32    33   ar
    25    33    34   ar
    26    34    35   ar
    27    35    40    1
    28    40    41    2
    29    40    42   am
    30    42    44    1
    31    44    45    1
    32    45    46    1
    33    46    47    1
    34    47    48   ar
    35    47    49   ar
    36    35    36   ar
    37    36    37   ar
    38    37    38    1
    39    37    39   ar
    40     9    10    1
    41    11    10    1
    42    11    12    1
    43    12    13   am
    44    13    14    2
    45    13    15   am
    46    15    50    1
    47    50    51    1
    48    51    52   ar
    49    52    53   ar
    50    53    54   ar
    51    54    55   ar
    52    55    56   ar
    53    12     1    1
    54    56    51   ar
    55    11     5    1
    56    27    21   ar
    57    39    30   ar
    58    39    34   ar
    59    25    28    1
    60    42    43    1
    61    15    16    1
