@<TRIPOS>MOLECULE
*****
 34 35 0 0 0
SMALL
GASTEIGER

@<TRIPOS>ATOM
      1 C          61.8405   88.9590   10.8394 C.ar    1  UNL1        0.1389
      2 N          62.5025   87.6288   10.6337 N.ar    1  UNL1       -0.2229
      3 C          62.0300   86.7171    9.5403 C.ar    1  UNL1        0.1740
      4 C          60.8956   87.1355    8.6526 C.ar    1  UNL1        0.2130
      5 O          60.4232   86.2237    7.5593 O.3     1  UNL1       -0.5006
      6 C          60.2336   88.4656    8.8584 C.ar    1  UNL1        0.2973
      7 O          59.0991   88.8841    7.9707 O.2     1  UNL1       -0.2636
      8 N          60.7061   89.3774    9.9517 N.ar    1  UNL1       -0.2783
      9 C          60.0440   90.7076   10.1574 C.3     1  UNL1        0.1349
     10 H          60.8367   85.3928    7.4308 H       1  UNL1        0.2924
     11 C          62.6921   85.3868    9.3346 C.2     1  UNL1        0.2671
     12 O          62.8596   84.8388    7.9484 O.2     1  UNL1       -0.2684
     13 N          63.1866   84.6047   10.5151 N.am    1  UNL1       -0.2956
     14 H          63.0767   84.9644   11.4249 H       1  UNL1        0.1501
     15 C          63.8487   83.2745   10.3095 C.3     1  UNL1        0.1166
     16 C          63.4540   82.1013   11.1567 C.ar    1  UNL1       -0.0024
     17 C          63.1321   80.7855   10.5126 C.ar    1  UNL1       -0.0003
     18 C          62.7374   79.6123   11.3598 C.ar    1  UNL1        0.0294
     19 C          62.6646   79.7550   12.8512 C.ar    1  UNL1        0.1401
     20 F          62.2699   78.5818   13.6985 F       1  UNL1       -0.2042
     21 C          62.9865   81.0708   13.4955 C.ar    1  UNL1        0.0294
     22 C          63.3812   82.2440   12.6482 C.ar    1  UNL1       -0.0003
     23 C          62.3129   89.8708   11.9328 C.3     1  UNL1        0.1078
     24 C          61.2075   89.3798   12.8199 C.3     1  UNL1        0.0274
     25 C          63.4184   90.3618   11.0457 C.3     1  UNL1        0.0274
     26 C          63.7304   90.2715   14.0729 C.2     1  UNL1        0.3000
     27 O          64.2031   88.8487   14.0263 O.2     1  UNL1       -0.2652
     28 N          62.7853   90.7826   13.0261 N.am    1  UNL1       -0.2939
     29 H          62.4751   91.7164   13.0568 H       1  UNL1        0.1502
     30 C          66.0266   92.7397   16.1671 C.3     1  UNL1        0.1154
     31 N          65.5541   91.8279   15.0737 N.am    1  UNL1       -0.2689
     32 C          66.4329   91.5608   13.8879 C.3     1  UNL1        0.1154
     33 C          64.2028   91.1833   15.1662 C.2     1  UNL1        0.3028
     34 O          63.3240   91.4505   16.3521 O.2     1  UNL1       -0.2649
@<TRIPOS>BOND
     1    30    31    1
     2    31    32    1
     3    31    33   am
     4    33    34    2
     5    33    26    1
     6    26    27    2
     7    26    28   am
     8    28    23    1
     9    23    24    1
    10    23    25    1
    11    23     1    1
    12     1     2   ar
    13     2     3   ar
    14     3    11    1
    15    11    12    2
    16    11    13   am
    17    13    15    1
    18    15    16    1
    19    16    17   ar
    20    17    18   ar
    21    18    19   ar
    22    19    20    1
    23    19    21   ar
    24    21    22   ar
    25     3     4   ar
    26     4     5    1
    27     4     6   ar
    28     6     7    2
    29     6     8   ar
    30     8     9    1
    31     8     1   ar
    32    22    16   ar
    33    28    29    1
    34    13    14    1
    35     5    10    1
@<TRIPOS>MOLECULE
*****
 34 35 0 0 0
SMALL
GASTEIGER

@<TRIPOS>ATOM
      1 C          63.7784   86.6464   14.4936 C.ar    1  UNL1        0.1389
      2 N          64.1224   87.9499   13.8362 N.ar    1  UNL1       -0.2229
      3 C          64.0330   89.2291   14.6145 C.ar    1  UNL1        0.1740
      4 C          63.5996   89.2047   16.0503 C.ar    1  UNL1        0.2130
      5 O          63.5102   90.4838   16.8286 O.3     1  UNL1       -0.5006
      6 C          63.2555   87.9011   16.7077 C.ar    1  UNL1        0.2973
      7 O          62.8220   87.8766   18.1436 O.2     1  UNL1       -0.2636
      8 N          63.3449   86.6219   15.9294 N.ar    1  UNL1       -0.2783
      9 C          63.0008   85.3183   16.5869 C.3     1  UNL1        0.1349
     10 H          63.7251   91.2981   16.4179 H       1  UNL1        0.2924
     11 C          64.3771   90.5327   13.9570 C.2     1  UNL1        0.2671
     12 O          63.5580   91.0299   12.8030 O.2     1  UNL1       -0.2684
     13 N          65.5404   91.3391   14.4536 N.am    1  UNL1       -0.2956
     14 H          66.0780   91.0127   15.2110 H       1  UNL1        0.1501
     15 C          65.8845   92.6426   13.7961 C.3     1  UNL1        0.1166
     16 C          66.5228   92.6526   12.4388 C.ar    1  UNL1       -0.0024
     17 C          65.8931   93.4275   11.3195 C.ar    1  UNL1       -0.0003
     18 C          66.5314   93.4375    9.9621 C.ar    1  UNL1        0.0294
     19 C          67.7994   92.6724    9.7240 C.ar    1  UNL1        0.1401
     20 F          68.4377   92.6824    8.3666 F       1  UNL1       -0.2042
     21 C          68.4292   91.8974   10.8433 C.ar    1  UNL1        0.0294
     22 C          67.7909   91.8875   12.2007 C.ar    1  UNL1       -0.0003
     23 C          63.8677   85.3672   13.7153 C.3     1  UNL1        0.1078
     24 C          65.0040   84.9173   14.5852 C.3     1  UNL1        0.0274
     25 C          62.7315   85.8171   12.8455 C.3     1  UNL1        0.0274
     26 C          63.0212   82.9567   13.2435 C.2     1  UNL1        0.3000
     27 O          61.9959   83.1044   14.3284 O.2     1  UNL1       -0.2652
     28 N          63.9571   84.0881   12.9370 N.am    1  UNL1       -0.2939
     29 H          64.6301   83.9911   12.2249 H       1  UNL1        0.1502
     30 C          63.3999   80.4372   10.2007 C.3     1  UNL1        0.1154
     31 N          63.3105   81.7163   10.9790 N.am    1  UNL1       -0.2689
     32 C          63.4210   83.0342   10.2712 C.3     1  UNL1        0.1154
     33 C          63.1106   81.6775   12.4652 C.2     1  UNL1        0.3028
     34 O          63.0002   80.3597   13.1729 O.2     1  UNL1       -0.2649
@<TRIPOS>BOND
     1    30    31    1
     2    31    32    1
     3    31    33   am
     4    33    34    2
     5    33    26    1
     6    26    27    2
     7    26    28   am
     8    28    23    1
     9    23    24    1
    10    23    25    1
    11    23     1    1
    12     1     2   ar
    13     2     3   ar
    14     3    11    1
    15    11    12    2
    16    11    13   am
    17    13    15    1
    18    15    16    1
    19    16    17   ar
    20    17    18   ar
    21    18    19   ar
    22    19    20    1
    23    19    21   ar
    24    21    22   ar
    25     3     4   ar
    26     4     5    1
    27     4     6   ar
    28     6     7    2
    29     6     8   ar
    30     8     9    1
    31     8     1   ar
    32    22    16   ar
    33    28    29    1
    34    13    14    1
    35     5    10    1
@<TRIPOS>MOLECULE
*****
 34 35 0 0 0
SMALL
GASTEIGER

@<TRIPOS>ATOM
      1 C          63.7698   86.4418   14.4117 C.ar    1  UNL1        0.1389
      2 N          64.1358   87.8190   13.9436 N.ar    1  UNL1       -0.2229
      3 C          64.0046   88.9874   14.8751 C.ar    1  UNL1        0.1740
      4 C          63.5075   88.7785   16.2748 C.ar    1  UNL1        0.2130
      5 O          63.3763   89.9468   17.2063 O.3     1  UNL1       -0.5006
      6 C          63.1415   87.4012   16.7429 C.ar    1  UNL1        0.2973
      7 O          62.6443   87.1923   18.1427 O.2     1  UNL1       -0.2636
      8 N          63.2727   86.2329   15.8114 N.ar    1  UNL1       -0.2783
      9 C          62.9067   84.8556   16.2796 C.3     1  UNL1        0.1349
     10 H          63.6049   90.8072   16.9139 H       1  UNL1        0.2924
     11 C          64.3707   90.3647   14.4069 C.2     1  UNL1        0.2671
     12 O          63.3344   91.2387   13.7649 O.2     1  UNL1       -0.2684
     13 N          65.7730   90.8680   14.5808 N.am    1  UNL1       -0.2956
     14 H          66.4531   90.2943   15.0022 H       1  UNL1        0.1501
     15 C          66.1390   92.2452   14.1127 C.3     1  UNL1        0.1166
     16 C          66.6003   92.4598   12.7016 C.ar    1  UNL1       -0.0024
     17 C          67.8663   91.8152   12.2202 C.ar    1  UNL1       -0.0003
     18 C          68.3277   92.0298   10.8091 C.ar    1  UNL1        0.0294
     19 C          67.5230   92.8889    9.8794 C.ar    1  UNL1        0.1401
     20 F          67.9843   93.1035    8.4684 F       1  UNL1       -0.2042
     21 C          66.2569   93.5335   10.3608 C.ar    1  UNL1        0.0294
     22 C          65.7956   93.3189   11.7719 C.ar    1  UNL1       -0.0003
     23 C          63.9010   85.2735   13.4802 C.3     1  UNL1        0.1078
     24 C          65.0262   84.7354   14.3135 C.3     1  UNL1        0.0274
     25 C          62.7758   85.8116   12.6468 C.3     1  UNL1        0.0274
     26 C          63.1055   82.9331   12.6804 C.2     1  UNL1        0.3000
     27 O          62.0474   82.9293   13.7438 O.2     1  UNL1       -0.2652
     28 N          64.0322   84.1051   12.5486 N.am    1  UNL1       -0.2939
     29 H          64.7266   84.1076   11.8507 H       1  UNL1        0.1502
     30 C          62.8663   79.2453   11.2336 C.3     1  UNL1        0.1154
     31 N          62.7351   80.4137   12.1651 N.am    1  UNL1       -0.2689
     32 C          62.1025   80.2310   13.5128 C.3     1  UNL1        0.1154
     33 C          63.2366   81.7647   11.7489 C.2     1  UNL1        0.3028
     34 O          63.8693   81.9474   10.4012 O.2     1  UNL1       -0.2649
@<TRIPOS>BOND
     1    30    31    1
     2    31    32    1
     3    31    33   am
     4    33    34    2
     5    33    26    1
     6    26    27    2
     7    26    28   am
     8    28    23    1
     9    23    24    1
    10    23    25    1
    11    23     1    1
    12     1     2   ar
    13     2     3   ar
    14     3    11    1
    15    11    12    2
    16    11    13   am
    17    13    15    1
    18    15    16    1
    19    16    17   ar
    20    17    18   ar
    21    18    19   ar
    22    19    20    1
    23    19    21   ar
    24    21    22   ar
    25     3     4   ar
    26     4     5    1
    27     4     6   ar
    28     6     7    2
    29     6     8   ar
    30     8     9    1
    31     8     1   ar
    32    22    16   ar
    33    28    29    1
    34    13    14    1
    35     5    10    1
@<TRIPOS>MOLECULE
*****
 34 35 0 0 0
SMALL
GASTEIGER

@<TRIPOS>ATOM
      1 C          61.6925   88.8873   10.8730 C.ar    1  UNL1        0.1389
      2 N          60.8972   89.4248    9.7203 N.ar    1  UNL1       -0.2229
      3 C          60.3649   88.4895    8.6754 C.ar    1  UNL1        0.1740
      4 C          60.6278   87.0167    8.7831 C.ar    1  UNL1        0.2130
      5 O          60.0955   86.0814    7.7382 O.3     1  UNL1       -0.5006
      6 C          61.4231   86.4792    9.9357 C.ar    1  UNL1        0.2973
      7 O          61.6861   85.0063   10.0435 O.2     1  UNL1       -0.2636
      8 N          61.9554   87.4145   10.9806 N.ar    1  UNL1       -0.2783
      9 C          62.7507   86.8769   12.1333 C.3     1  UNL1        0.1349
     10 H          59.5987   86.4172    7.0182 H       1  UNL1        0.2924
     11 C          59.5696   89.0271    7.5227 C.2     1  UNL1        0.2671
     12 O          58.2761   88.3743    7.1347 O.2     1  UNL1       -0.2684
     13 N          60.0679   90.2176    6.7582 N.am    1  UNL1       -0.2956
     14 H          60.9169   90.6461    7.0129 H       1  UNL1        0.1501
     15 C          59.2727   90.7552    5.6055 C.3     1  UNL1        0.1166
     16 C          59.9635   91.4921    4.4966 C.ar    1  UNL1       -0.0024
     17 C          61.4251   91.2687    4.2442 C.ar    1  UNL1       -0.0003
     18 C          62.1159   92.0056    3.1352 C.ar    1  UNL1        0.0294
     19 C          61.3451   92.9659    2.2787 C.ar    1  UNL1        0.1401
     20 F          62.0359   93.7028    1.1698 F       1  UNL1       -0.2042
     21 C          59.8834   93.1893    2.5311 C.ar    1  UNL1        0.0294
     22 C          59.1926   92.4524    3.6401 C.ar    1  UNL1       -0.0003
     23 C          62.2248   89.8226   11.9179 C.3     1  UNL1        0.1078
     24 C          61.0024   89.5843   12.7539 C.3     1  UNL1        0.0274
     25 C          63.4472   90.0609   11.0819 C.3     1  UNL1        0.0274
     26 C          63.5950   90.2268   14.0879 C.2     1  UNL1        0.3000
     27 O          63.9006   88.7604   14.1682 O.2     1  UNL1       -0.2652
     28 N          62.7571   90.7579   12.9628 N.am    1  UNL1       -0.2939
     29 H          62.5566   91.7203   12.9102 H       1  UNL1        0.1502
     30 C          66.0006   92.7437   15.9928 C.3     1  UNL1        0.1154
     31 N          65.4683   91.8084   14.9479 N.am    1  UNL1       -0.2689
     32 C          66.2769   91.5194   13.7180 C.3     1  UNL1        0.1154
     33 C          64.1273   91.1621   15.1328 C.2     1  UNL1        0.3028
     34 O          63.3187   91.4511   16.3627 O.2     1  UNL1       -0.2649
@<TRIPOS>BOND
     1    30    31    1
     2    31    32    1
     3    31    33   am
     4    33    34    2
     5    33    26    1
     6    26    27    2
     7    26    28   am
     8    28    23    1
     9    23    24    1
    10    23    25    1
    11    23     1    1
    12     1     2   ar
    13     2     3   ar
    14     3    11    1
    15    11    12    2
    16    11    13   am
    17    13    15    1
    18    15    16    1
    19    16    17   ar
    20    17    18   ar
    21    18    19   ar
    22    19    20    1
    23    19    21   ar
    24    21    22   ar
    25     3     4   ar
    26     4     5    1
    27     4     6   ar
    28     6     7    2
    29     6     8   ar
    30     8     9    1
    31     8     1   ar
    32    22    16   ar
    33    28    29    1
    34    13    14    1
    35     5    10    1
@<TRIPOS>MOLECULE
*****
 34 35 0 0 0
SMALL
GASTEIGER

@<TRIPOS>ATOM
      1 C          63.5754   85.8846   14.5226 C.ar    1  UNL1        0.1389
      2 N          63.9271   87.3089   14.2103 N.ar    1  UNL1       -0.2229
      3 C          63.7738   88.3673   15.2622 C.ar    1  UNL1        0.1740
      4 C          63.2687   88.0013   16.6264 C.ar    1  UNL1        0.2130
      5 O          63.1154   89.0596   17.6782 O.3     1  UNL1       -0.5006
      6 C          62.9170   86.5770   16.9386 C.ar    1  UNL1        0.2973
      7 O          62.4119   86.2109   18.3028 O.2     1  UNL1       -0.2636
      8 N          63.0703   85.5186   15.8867 N.ar    1  UNL1       -0.2783
      9 C          62.7185   84.0943   16.1991 C.3     1  UNL1        0.1349
     10 H          63.3351   89.9493   17.4832 H       1  UNL1        0.2924
     11 C          64.1255   89.7917   14.9499 C.2     1  UNL1        0.2671
     12 O          63.6299   90.8977   15.8336 O.2     1  UNL1       -0.2684
     13 N          64.9730   90.1099   13.7538 N.am    1  UNL1       -0.2956
     14 H          65.2983   89.3840   13.1738 H       1  UNL1        0.1501
     15 C          65.3247   91.5342   13.4415 C.3     1  UNL1        0.1166
     16 C          66.4280   92.2167   14.1945 C.ar    1  UNL1       -0.0024
     17 C          67.4229   91.4033   14.9680 C.ar    1  UNL1       -0.0003
     18 C          68.5262   92.0858   15.7210 C.ar    1  UNL1        0.0294
     19 C          68.6346   93.5817   15.7004 C.ar    1  UNL1        0.1401
     20 F          69.7378   94.2642   16.4534 F       1  UNL1       -0.2042
     21 C          67.6396   94.3952   14.9268 C.ar    1  UNL1        0.0294
     22 C          66.5363   93.7127   14.1738 C.ar    1  UNL1       -0.0003
     23 C          63.7287   84.8263   13.4707 C.3     1  UNL1        0.1078
     24 C          62.5282   85.3668   12.7519 C.3     1  UNL1        0.0274
     25 C          64.9292   84.2858   14.1896 C.3     1  UNL1        0.0274
     26 C          63.0302   82.5343   12.4664 C.2     1  UNL1        0.3000
     27 O          62.0249   82.3589   13.5659 O.2     1  UNL1       -0.2652
     28 N          63.8820   83.7680   12.4189 N.am    1  UNL1       -0.2939
     29 H          64.5418   83.8831   11.6973 H       1  UNL1        0.1502
     30 C          62.9468   79.0005   10.6621 C.3     1  UNL1        0.1154
     31 N          62.7934   80.0588   11.7140 N.am    1  UNL1       -0.2689
     32 C          62.2500   79.7001   13.0653 C.3     1  UNL1        0.1154
     33 C          63.1835   81.4760   11.4145 C.2     1  UNL1        0.3028
     34 O          63.7269   81.8347   10.0633 O.2     1  UNL1       -0.2649
@<TRIPOS>BOND
     1    30    31    1
     2    31    32    1
     3    31    33   am
     4    33    34    2
     5    33    26    1
     6    26    27    2
     7    26    28   am
     8    28    23    1
     9    23    24    1
    10    23    25    1
    11    23     1    1
    12     1     2   ar
    13     2     3   ar
    14     3    11    1
    15    11    12    2
    16    11    13   am
    17    13    15    1
    18    15    16    1
    19    16    17   ar
    20    17    18   ar
    21    18    19   ar
    22    19    20    1
    23    19    21   ar
    24    21    22   ar
    25     3     4   ar
    26     4     5    1
    27     4     6   ar
    28     6     7    2
    29     6     8   ar
    30     8     9    1
    31     8     1   ar
    32    22    16   ar
    33    28    29    1
    34    13    14    1
    35     5    10    1
@<TRIPOS>MOLECULE
*****
 34 35 0 0 0
SMALL
GASTEIGER

@<TRIPOS>ATOM
      1 C          62.6378   89.2189   12.0167 C.ar    1  UNL1        0.1389
      2 N          63.1185   87.8042   12.1486 N.ar    1  UNL1       -0.2229
      3 C          62.4637   86.7126   11.3551 C.ar    1  UNL1        0.1740
      4 C          61.3282   87.0356   10.4299 C.ar    1  UNL1        0.2130
      5 O          60.6734   85.9440    9.6364 O.3     1  UNL1       -0.5006
      6 C          60.8475   88.4504   10.2980 C.ar    1  UNL1        0.2973
      7 O          59.7119   88.7735    9.3727 O.2     1  UNL1       -0.2636
      8 N          61.5023   89.5420   11.0915 N.ar    1  UNL1       -0.2783
      9 C          61.0215   90.9568   10.9596 C.3     1  UNL1        0.1349
     10 H          60.9737   85.0603    9.7188 H       1  UNL1        0.2924
     11 C          62.9445   85.2978   11.4870 C.2     1  UNL1        0.2671
     12 O          62.5990   84.2870   10.4340 O.2     1  UNL1       -0.2684
     13 N          63.7707   84.8938   12.6720 N.am    1  UNL1       -0.2956
     14 H          63.9975   85.5573   13.3631 H       1  UNL1        0.1501
     15 C          64.2515   83.4792   12.8039 C.3     1  UNL1        0.1166
     16 C          63.2779   82.3825   13.1193 C.ar    1  UNL1       -0.0024
     17 C          63.3696   81.0687   12.4012 C.ar    1  UNL1       -0.0003
     18 C          62.3960   79.9721   12.7166 C.ar    1  UNL1        0.0294
     19 C          61.3308   80.1891   13.7500 C.ar    1  UNL1        0.1401
     20 F          60.3572   79.0925   14.0654 F       1  UNL1       -0.2042
     21 C          61.2390   81.5029   14.4681 C.ar    1  UNL1        0.0294
     22 C          62.2126   82.5996   14.1528 C.ar    1  UNL1       -0.0003
     23 C          63.2926   90.3106   12.8102 C.3     1  UNL1        0.1078
     24 C          63.9273   90.8398   11.5583 C.3     1  UNL1        0.0274
     25 C          62.6579   89.7814   14.0620 C.3     1  UNL1        0.0274
     26 C          65.0714   91.0766   14.5420 C.2     1  UNL1        0.3000
     27 O          65.5406   89.6592   14.6869 O.2     1  UNL1       -0.2652
     28 N          63.9474   91.4022   13.6036 N.am    1  UNL1       -0.2939
     29 H          63.6394   92.3325   13.5085 H       1  UNL1        0.1502
     30 C          67.7676   93.7128   15.7792 C.3     1  UNL1        0.1154
     31 N          67.1128   92.6211   14.9858 N.am    1  UNL1       -0.2689
     32 C          67.8446   91.9823   13.8428 C.3     1  UNL1        0.1154
     33 C          65.7262   92.1682   15.3354 C.2     1  UNL1        0.3028
     34 O          64.9944   92.8070   16.4784 O.2     1  UNL1       -0.2649
@<TRIPOS>BOND
     1    30    31    1
     2    31    32    1
     3    31    33   am
     4    33    34    2
     5    33    26    1
     6    26    27    2
     7    26    28   am
     8    28    23    1
     9    23    24    1
    10    23    25    1
    11    23     1    1
    12     1     2   ar
    13     2     3   ar
    14     3    11    1
    15    11    12    2
    16    11    13   am
    17    13    15    1
    18    15    16    1
    19    16    17   ar
    20    17    18   ar
    21    18    19   ar
    22    19    20    1
    23    19    21   ar
    24    21    22   ar
    25     3     4   ar
    26     4     5    1
    27     4     6   ar
    28     6     7    2
    29     6     8   ar
    30     8     9    1
    31     8     1   ar
    32    22    16   ar
    33    28    29    1
    34    13    14    1
    35     5    10    1
@<TRIPOS>MOLECULE
*****
 34 35 0 0 0
SMALL
GASTEIGER

@<TRIPOS>ATOM
      1 C          63.6110   89.5755   12.8074 C.ar    1  UNL1        0.1389
      2 N          63.8485   88.2293   13.4248 N.ar    1  UNL1       -0.2229
      3 C          63.2073   87.0092   12.8331 C.ar    1  UNL1        0.1740
      4 C          62.3285   87.1352   11.6241 C.ar    1  UNL1        0.2130
      5 O          61.6873   85.9151   11.0324 O.3     1  UNL1       -0.5006
      6 C          62.0911   88.4815   11.0067 C.ar    1  UNL1        0.2973
      7 O          61.2123   88.6076    9.7975 O.2     1  UNL1       -0.2636
      8 N          62.7323   89.7016   11.5983 N.ar    1  UNL1       -0.2783
      9 C          62.4948   91.0479   10.9809 C.3     1  UNL1        0.1349
     10 H          61.8356   85.0742   11.4181 H       1  UNL1        0.2924
     11 C          63.4448   85.6629   13.4506 C.2     1  UNL1        0.2671
     12 O          64.8357   85.2442   13.8247 O.2     1  UNL1       -0.2684
     13 N          62.2913   84.7353   13.6939 N.am    1  UNL1       -0.2956
     14 H          61.3784   85.0101   13.4483 H       1  UNL1        0.1501
     15 C          62.5288   83.3891   14.3113 C.3     1  UNL1        0.1166
     16 C          62.5767   82.1649   13.4458 C.ar    1  UNL1       -0.0024
     17 C          63.0250   82.2726   12.0184 C.ar    1  UNL1       -0.0003
     18 C          63.0730   81.0485   11.1529 C.ar    1  UNL1        0.0294
     19 C          62.6726   79.7166   11.7148 C.ar    1  UNL1        0.1401
     20 F          62.7205   78.4924   10.8493 F       1  UNL1       -0.2042
     21 C          62.2243   79.6088   13.1422 C.ar    1  UNL1        0.0294
     22 C          62.1763   80.8330   14.0077 C.ar    1  UNL1       -0.0003
     23 C          64.2523   90.7956   13.3991 C.3     1  UNL1        0.1078
     24 C          64.1365   90.1928   14.7677 C.3     1  UNL1        0.0274
     25 C          64.3681   91.3985   12.0304 C.3     1  UNL1        0.0274
     26 C          66.3563   92.2718   13.7790 C.2     1  UNL1        0.3000
     27 O          67.1778   91.3076   12.9755 O.2     1  UNL1       -0.2652
     28 N          64.8935   92.0158   13.9907 N.am    1  UNL1       -0.2939
     29 H          64.3544   92.6486   14.5181 H       1  UNL1        0.1502
     30 C          68.6737   94.5682   16.0386 C.3     1  UNL1        0.1154
     31 N          68.0325   93.3481   15.4469 N.am    1  UNL1       -0.2689
     32 C          68.4261   91.9842   15.9315 C.3     1  UNL1        0.1154
     33 C          66.9975   93.4919   14.3706 C.2     1  UNL1        0.3028
     34 O          66.6039   94.8558   13.8861 O.2     1  UNL1       -0.2649
@<TRIPOS>BOND
     1    30    31    1
     2    31    32    1
     3    31    33   am
     4    33    34    2
     5    33    26    1
     6    26    27    2
     7    26    28   am
     8    28    23    1
     9    23    24    1
    10    23    25    1
    11    23     1    1
    12     1     2   ar
    13     2     3   ar
    14     3    11    1
    15    11    12    2
    16    11    13   am
    17    13    15    1
    18    15    16    1
    19    16    17   ar
    20    17    18   ar
    21    18    19   ar
    22    19    20    1
    23    19    21   ar
    24    21    22   ar
    25     3     4   ar
    26     4     5    1
    27     4     6   ar
    28     6     7    2
    29     6     8   ar
    30     8     9    1
    31     8     1   ar
    32    22    16   ar
    33    28    29    1
    34    13    14    1
    35     5    10    1
@<TRIPOS>MOLECULE
*****
 34 35 0 0 0
SMALL
GASTEIGER

@<TRIPOS>ATOM
      1 C          62.6038   87.4839   11.9137 C.ar    1  UNL1        0.1389
      2 N          63.3405   88.6664   12.4693 N.ar    1  UNL1       -0.2229
      3 C          63.3134   89.9771   11.7403 C.ar    1  UNL1        0.1740
      4 C          62.5495   90.1052   10.4558 C.ar    1  UNL1        0.2130
      5 O          62.5224   91.4159    9.7268 O.3     1  UNL1       -0.5006
      6 C          61.8128   88.9226    9.9002 C.ar    1  UNL1        0.2973
      7 O          61.0488   89.0507    8.6156 O.2     1  UNL1       -0.2636
      8 N          61.8399   87.6119   10.6292 N.ar    1  UNL1       -0.2783
      9 C          61.1031   86.4293   10.0736 C.3     1  UNL1        0.1349
     10 H          62.9826   92.1546   10.0738 H       1  UNL1        0.2924
     11 C          64.0502   91.1597   12.2959 C.2     1  UNL1        0.2671
     12 O          63.8617   91.5544   13.7307 O.2     1  UNL1       -0.2684
     13 N          64.9755   91.9476   11.4166 N.am    1  UNL1       -0.2956
     14 H          65.0992   91.6886   10.4749 H       1  UNL1        0.1501
     15 C          65.7122   93.1302   11.9722 C.3     1  UNL1        0.1166
     16 C          66.6605   92.9512   13.1205 C.ar    1  UNL1       -0.0024
     17 C          66.5343   93.8164   14.3393 C.ar    1  UNL1       -0.0003
     18 C          67.4826   93.6375   15.4876 C.ar    1  UNL1        0.0294
     19 C          68.5572   92.5933   15.4172 C.ar    1  UNL1        0.1401
     20 F          69.5055   92.4144   16.5655 F       1  UNL1       -0.2042
     21 C          68.6835   91.7281   14.1984 C.ar    1  UNL1        0.0294
     22 C          67.7351   91.9070   13.0500 C.ar    1  UNL1       -0.0003
     23 C          62.6310   86.1732   12.6427 C.3     1  UNL1        0.1078
     24 C          61.6342   85.6127   11.6720 C.3     1  UNL1        0.0274
     25 C          63.6277   86.7337   13.6134 C.3     1  UNL1        0.0274
     26 C          63.5644   83.7627   12.9037 C.2     1  UNL1        0.3000
     27 O          64.4435   83.9735   11.7068 O.2     1  UNL1       -0.2652
     28 N          62.6581   84.8625   13.3717 N.am    1  UNL1       -0.2939
     29 H          62.0811   84.7242   14.1573 H       1  UNL1        0.1502
     30 C          63.2143   79.8815   13.6549 C.3     1  UNL1        0.1154
     31 N          63.1871   81.1922   12.9260 N.am    1  UNL1       -0.2689
     32 C          62.7557   81.2431   11.4903 C.3     1  UNL1        0.1154
     33 C          63.5915   82.4520   13.6327 C.2     1  UNL1        0.3028
     34 O          64.0230   82.4011   15.0684 O.2     1  UNL1       -0.2649
@<TRIPOS>BOND
     1    30    31    1
     2    31    32    1
     3    31    33   am
     4    33    34    2
     5    33    26    1
     6    26    27    2
     7    26    28   am
     8    28    23    1
     9    23    24    1
    10    23    25    1
    11    23     1    1
    12     1     2   ar
    13     2     3   ar
    14     3    11    1
    15    11    12    2
    16    11    13   am
    17    13    15    1
    18    15    16    1
    19    16    17   ar
    20    17    18   ar
    21    18    19   ar
    22    19    20    1
    23    19    21   ar
    24    21    22   ar
    25     3     4   ar
    26     4     5    1
    27     4     6   ar
    28     6     7    2
    29     6     8   ar
    30     8     9    1
    31     8     1   ar
    32    22    16   ar
    33    28    29    1
    34    13    14    1
    35     5    10    1
@<TRIPOS>MOLECULE
*****
 34 35 0 0 0
SMALL
GASTEIGER

@<TRIPOS>ATOM
      1 C          62.9260   89.6124   11.6672 C.ar    1  UNL1        0.1389
      2 N          63.3670   88.3731   12.3880 N.ar    1  UNL1       -0.2229
      3 C          62.8179   87.0363   11.9863 C.ar    1  UNL1        0.1740
      4 C          61.8278   86.9388   10.8638 C.ar    1  UNL1        0.2130
      5 O          61.2786   85.6019   10.4621 O.3     1  UNL1       -0.5006
      6 C          61.3867   88.1781   10.1430 C.ar    1  UNL1        0.2973
      7 O          60.3966   88.0806    9.0204 O.2     1  UNL1       -0.2636
      8 N          61.9359   89.5149   10.5447 N.ar    1  UNL1       -0.2783
      9 C          61.4948   90.7542    9.8238 C.3     1  UNL1        0.1349
     10 H          61.5541   84.8278   10.9124 H       1  UNL1        0.2924
     11 C          63.2590   85.7970   12.7072 C.2     1  UNL1        0.2671
     12 O          63.5875   85.8567   14.1695 O.2     1  UNL1       -0.2684
     13 N          63.3715   84.4980   11.9657 N.am    1  UNL1       -0.2956
     14 H          63.1559   84.4588   11.0059 H       1  UNL1        0.1501
     15 C          63.8125   83.2587   12.6865 C.3     1  UNL1        0.1166
     16 C          63.4432   81.9074   12.1501 C.ar    1  UNL1       -0.0024
     17 C          62.9857   80.8283   13.0861 C.ar    1  UNL1       -0.0003
     18 C          62.6163   79.4771   12.5497 C.ar    1  UNL1        0.0294
     19 C          62.7044   79.2050   11.0772 C.ar    1  UNL1        0.1401
     20 F          62.3351   77.8537   10.5408 F       1  UNL1       -0.2042
     21 C          63.1619   80.2841   10.1411 C.ar    1  UNL1        0.0294
     22 C          63.5313   81.6353   10.6775 C.ar    1  UNL1       -0.0003
     23 C          63.4751   90.9493   12.0689 C.3     1  UNL1        0.1078
     24 C          63.3495   90.5667   13.5138 C.3     1  UNL1        0.0274
     25 C          63.6007   91.3318   10.6239 C.3     1  UNL1        0.0274
     26 C          65.4909   92.5674   12.3301 C.2     1  UNL1        0.3000
     27 O          66.4085   91.5118   11.7879 O.2     1  UNL1       -0.2652
     28 N          64.0243   92.2861   12.4705 N.am    1  UNL1       -0.2939
     29 H          63.4220   92.9789   12.8264 H       1  UNL1        0.1502
     30 C          66.6364   96.3623   12.1381 C.3     1  UNL1        0.1154
     31 N          66.0873   95.0254   11.7364 N.am    1  UNL1       -0.2689
     32 C          65.5854   94.8098   10.3394 C.3     1  UNL1        0.1154
     33 C          66.0400   93.9042   12.7318 C.2     1  UNL1        0.3028
     34 O          66.5419   94.1199   14.1287 O.2     1  UNL1       -0.2649
@<TRIPOS>BOND
     1    30    31    1
     2    31    32    1
     3    31    33   am
     4    33    34    2
     5    33    26    1
     6    26    27    2
     7    26    28   am
     8    28    23    1
     9    23    24    1
    10    23    25    1
    11    23     1    1
    12     1     2   ar
    13     2     3   ar
    14     3    11    1
    15    11    12    2
    16    11    13   am
    17    13    15    1
    18    15    16    1
    19    16    17   ar
    20    17    18   ar
    21    18    19   ar
    22    19    20    1
    23    19    21   ar
    24    21    22   ar
    25     3     4   ar
    26     4     5    1
    27     4     6   ar
    28     6     7    2
    29     6     8   ar
    30     8     9    1
    31     8     1   ar
    32    22    16   ar
    33    28    29    1
    34    13    14    1
    35     5    10    1
