@<TRIPOS>MOLECULE
*****
 32 35 0 0 0
SMALL
GASTEIGER

@<TRIPOS>ATOM
      1 C          62.7902   89.0551   12.2685 C.ar    1  UNL1        0.0455
      2 C          61.5776   89.9363   12.3233 C.ar    1  UNL1        0.0225
      3 C          60.4536   89.7266   11.3525 C.ar    1  UNL1        0.0534
      4 BR         59.2409   90.6078   11.4073 Br      1  UNL1       -0.0474
      5 C          60.5422   88.6357   10.3268 C.ar    1  UNL1        0.0888
      6 N          59.4181   88.4260    9.3559 N.ar    1  UNL1       -0.2426
      7 C          59.5067   87.3351    8.3302 C.ar    1  UNL1        0.1103
      8 C          60.7194   86.4539    8.2754 C.ar    1  UNL1        0.1009
      9 C          61.8434   86.6636    9.2462 C.ar    1  UNL1        0.0610
     10 C          61.7548   87.7545   10.2719 C.ar    1  UNL1        0.0335
     11 C          62.8788   87.9642   11.2428 C.ar    1  UNL1        0.0171
     12 N          63.9143   89.2648   13.2394 N.pl3   1  UNL1       -0.3278
     13 H          64.5713   88.5481   13.3940 H       1  UNL1        0.1472
     14 C          64.0373   90.5664   13.9746 C.3     1  UNL1        0.1354
     15 C          66.1598   93.9565   10.5274 C.3     1  UNL1        0.1321
     16 N          65.8205   93.2443   11.8031 N.ar    1  UNL1       -0.3061
     17 C          66.3547   93.5733   13.1656 C.ar    1  UNL1        0.1783
     18 N          65.7517   92.6102   14.1449 N.ar    1  UNL1       -0.2266
     19 C          64.8449   91.6860   13.3875 C.ar    1  UNL1        0.0976
     20 C          64.8874   92.0779   11.9403 C.ar    1  UNL1        0.0937
     21 C          60.8080   85.3630    7.2496 C.1     1  UNL1        0.1032
     22 N          60.8966   84.2721    6.2239 N.1     1  UNL1       -0.1907
     23 N          63.0560   85.7824    9.1913 N.pl3   1  UNL1       -0.3119
     24 H          63.7704   85.9681    8.5399 H       1  UNL1        0.1522
     25 C          63.1801   84.6182   10.1290 C.ar    1  UNL1        0.0493
     26 C          63.8094   83.3404    9.6590 C.ar    1  UNL1        0.0170
     27 C          63.9336   82.1762   10.5967 C.ar    1  UNL1        0.0318
     28 C          63.4285   82.2899   12.0044 C.ar    1  UNL1        0.1507
     29 F          63.5527   81.1257   12.9421 F       1  UNL1       -0.2033
     30 C          62.7992   83.5678   12.4746 C.ar    1  UNL1        0.0863
     31 CL         62.2941   83.6815   13.8824 Cl      1  UNL1       -0.0799
     32 C          62.6750   84.7320   11.5369 C.ar    1  UNL1        0.0283
@<TRIPOS>BOND
     1    15    16    1
     2    16    17   ar
     3    17    18   ar
     4    18    19   ar
     5    19    14    1
     6    14    12    1
     7    12     1    1
     8     1     2   ar
     9     2     3   ar
    10     3     4    1
    11     3     5   ar
    12     5     6   ar
    13     6     7   ar
    14     7     8   ar
    15     8    21    1
    16    21    22    3
    17     8     9   ar
    18     9    23    1
    19    23    25    1
    20    25    26   ar
    21    26    27   ar
    22    27    28   ar
    23    28    29    1
    24    28    30   ar
    25    30    31    1
    26    30    32   ar
    27     9    10   ar
    28    10    11   ar
    29    19    20   ar
    30    20    16   ar
    31    11     1   ar
    32    10     5   ar
    33    32    25   ar
    34    12    13    1
    35    23    24    1
@<TRIPOS>MOLECULE
*****
 32 35 0 0 0
SMALL
GASTEIGER

@<TRIPOS>ATOM
      1 C          64.0464   84.4873   13.3024 C.ar    1  UNL1        0.0455
      2 C          64.3584   83.3418   12.3857 C.ar    1  UNL1        0.0225
      3 C          63.8925   83.3736   10.9603 C.ar    1  UNL1        0.0534
      4 BR         64.2044   82.2280   10.0435 Br      1  UNL1       -0.0474
      5 C          63.1146   84.5509   10.4516 C.ar    1  UNL1        0.0888
      6 N          62.6486   84.5827    9.0261 N.ar    1  UNL1       -0.2426
      7 C          61.8707   85.7600    8.5174 C.ar    1  UNL1        0.1103
      8 C          61.5588   86.9056    9.4342 C.ar    1  UNL1        0.1009
      9 C          62.0247   86.8738   10.8596 C.ar    1  UNL1        0.0610
     10 C          62.8026   85.6965   11.3683 C.ar    1  UNL1        0.0335
     11 C          63.2685   85.6646   12.7937 C.ar    1  UNL1        0.0171
     12 N          64.5124   84.4556   14.7279 N.pl3   1  UNL1       -0.3278
     13 H          65.4738   84.3934   14.9303 H       1  UNL1        0.1472
     14 C          63.5134   84.5186   15.8451 C.3     1  UNL1        0.1354
     15 C          63.2541   89.6925   16.8665 C.3     1  UNL1        0.1321
     16 N          63.1045   88.2051   16.9887 N.ar    1  UNL1       -0.3061
     17 C          62.4511   87.4751   18.1246 C.ar    1  UNL1        0.1783
     18 N          62.5247   86.0052   17.8344 N.ar    1  UNL1       -0.2266
     19 C          63.2237   85.8269   16.5192 C.ar    1  UNL1        0.0976
     20 C          63.5819   87.1865   15.9966 C.ar    1  UNL1        0.0937
     21 C          60.7809   88.0829    8.9255 C.1     1  UNL1        0.1032
     22 N          60.0030   89.2602    8.4168 N.1     1  UNL1       -0.1907
     23 N          61.7127   88.0193   11.7763 N.pl3   1  UNL1       -0.3119
     24 H          60.9091   87.9905   12.3443 H       1  UNL1        0.1522
     25 C          62.6251   89.2088   11.8277 C.ar    1  UNL1        0.0493
     26 C          62.6660   90.1728   10.6793 C.ar    1  UNL1        0.0170
     27 C          63.5784   91.3623   10.7306 C.ar    1  UNL1        0.0318
     28 C          64.4500   91.5877   11.9304 C.ar    1  UNL1        0.1507
     29 F          65.3624   92.7772   11.9818 F       1  UNL1       -0.2033
     30 C          64.4092   90.6236   13.0789 C.ar    1  UNL1        0.0863
     31 CL         65.2807   90.8491   14.2787 Cl      1  UNL1       -0.0799
     32 C          63.4967   89.4342   13.0275 C.ar    1  UNL1        0.0283
@<TRIPOS>BOND
     1    15    16    1
     2    16    17   ar
     3    17    18   ar
     4    18    19   ar
     5    19    14    1
     6    14    12    1
     7    12     1    1
     8     1     2   ar
     9     2     3   ar
    10     3     4    1
    11     3     5   ar
    12     5     6   ar
    13     6     7   ar
    14     7     8   ar
    15     8    21    1
    16    21    22    3
    17     8     9   ar
    18     9    23    1
    19    23    25    1
    20    25    26   ar
    21    26    27   ar
    22    27    28   ar
    23    28    29    1
    24    28    30   ar
    25    30    31    1
    26    30    32   ar
    27     9    10   ar
    28    10    11   ar
    29    19    20   ar
    30    20    16   ar
    31    11     1   ar
    32    10     5   ar
    33    32    25   ar
    34    12    13    1
    35    23    24    1
@<TRIPOS>MOLECULE
*****
 32 35 0 0 0
SMALL
GASTEIGER

@<TRIPOS>ATOM
      1 C          64.1715   88.0131   14.6673 C.ar    1  UNL1        0.0455
      2 C          63.6942   87.8532   16.0803 C.ar    1  UNL1        0.0225
      3 C          63.1403   86.5374   16.5404 C.ar    1  UNL1        0.0534
      4 BR         62.6630   86.3774   17.9535 Br      1  UNL1       -0.0474
      5 C          63.0636   85.3815   15.5875 C.ar    1  UNL1        0.0888
      6 N          62.5097   84.0656   16.0477 N.ar    1  UNL1       -0.2426
      7 C          62.4330   82.9097   15.0948 C.ar    1  UNL1        0.1103
      8 C          62.9103   83.0696   13.6818 C.ar    1  UNL1        0.1009
      9 C          63.4643   84.3855   13.2217 C.ar    1  UNL1        0.0610
     10 C          63.5409   85.5414   14.1746 C.ar    1  UNL1        0.0335
     11 C          64.0948   86.8572   13.7144 C.ar    1  UNL1        0.0171
     12 N          64.7255   89.3290   14.2071 N.pl3   1  UNL1       -0.3278
     13 H          65.6989   89.4525   14.1275 H       1  UNL1        0.1472
     14 C          63.7962   90.4566   13.8683 C.3     1  UNL1        0.1354
     15 C          60.4819   89.8675    9.8003 C.3     1  UNL1        0.1321
     16 N          61.6646   90.2710   10.6299 N.ar    1  UNL1       -0.3061
     17 C          62.8397   91.0749   10.1577 C.ar    1  UNL1        0.1783
     18 N          63.7813   91.2423   11.3134 N.ar    1  UNL1       -0.2266
     19 C          63.1880   90.5418   12.4997 C.ar    1  UNL1        0.0976
     20 C          61.8799   89.9416   12.0773 C.ar    1  UNL1        0.0937
     21 C          62.8337   81.9137   12.7289 C.1     1  UNL1        0.1032
     22 N          62.7570   80.7578   11.7760 N.1     1  UNL1       -0.1907
     23 N          63.9415   84.5454   11.8087 N.pl3   1  UNL1       -0.3119
     24 H          64.8715   84.3222   11.5750 H       1  UNL1        0.1522
     25 C          63.0019   85.0452   10.7517 C.ar    1  UNL1        0.0493
     26 C          61.8221   85.8885   11.1349 C.ar    1  UNL1        0.0170
     27 C          60.8825   86.3884   10.0779 C.ar    1  UNL1        0.0318
     28 C          61.1227   86.0449    8.6377 C.ar    1  UNL1        0.1507
     29 F          60.1830   86.5448    7.5807 F       1  UNL1       -0.2033
     30 C          62.3025   85.2016    8.2544 C.ar    1  UNL1        0.0863
     31 CL         62.5427   84.8582    6.8141 Cl      1  UNL1       -0.0799
     32 C          63.2421   84.7018    9.3114 C.ar    1  UNL1        0.0283
@<TRIPOS>BOND
     1    15    16    1
     2    16    17   ar
     3    17    18   ar
     4    18    19   ar
     5    19    14    1
     6    14    12    1
     7    12     1    1
     8     1     2   ar
     9     2     3   ar
    10     3     4    1
    11     3     5   ar
    12     5     6   ar
    13     6     7   ar
    14     7     8   ar
    15     8    21    1
    16    21    22    3
    17     8     9   ar
    18     9    23    1
    19    23    25    1
    20    25    26   ar
    21    26    27   ar
    22    27    28   ar
    23    28    29    1
    24    28    30   ar
    25    30    31    1
    26    30    32   ar
    27     9    10   ar
    28    10    11   ar
    29    19    20   ar
    30    20    16   ar
    31    11     1   ar
    32    10     5   ar
    33    32    25   ar
    34    12    13    1
    35    23    24    1
@<TRIPOS>MOLECULE
*****
 32 35 0 0 0
SMALL
GASTEIGER

@<TRIPOS>ATOM
      1 C          64.2478   88.6421   14.4136 C.ar    1  UNL1        0.0455
      2 C          64.9610   89.9612   14.3779 C.ar    1  UNL1        0.0225
      3 C          64.6893   90.9309   13.2662 C.ar    1  UNL1        0.0534
      4 BR         65.4025   92.2500   13.2305 Br      1  UNL1       -0.0474
      5 C          63.7044   90.5814   12.1902 C.ar    1  UNL1        0.0888
      6 N          63.4327   91.5511   11.0784 N.ar    1  UNL1       -0.2426
      7 C          62.4478   91.2016   10.0024 C.ar    1  UNL1        0.1103
      8 C          61.7346   89.8824   10.0381 C.ar    1  UNL1        0.1009
      9 C          62.0063   88.9128   11.1498 C.ar    1  UNL1        0.0610
     10 C          62.9912   89.2623   12.2258 C.ar    1  UNL1        0.0335
     11 C          63.2629   88.2927   13.3376 C.ar    1  UNL1        0.0171
     12 N          64.5195   87.6724   15.5253 N.pl3   1  UNL1       -0.3278
     13 H          64.3202   87.9226   16.4564 H       1  UNL1        0.1472
     14 C          65.0949   86.3217   15.2185 C.3     1  UNL1        0.1354
     15 C          63.2864   81.5037   14.0365 C.3     1  UNL1        0.1321
     16 N          63.3556   82.9241   14.5133 N.ar    1  UNL1       -0.3061
     17 C          62.2233   83.7128   15.1017 C.ar    1  UNL1        0.1783
     18 N          62.7372   85.0816   15.4375 N.ar    1  UNL1       -0.2266
     19 C          64.1869   85.1387   15.0566 C.ar    1  UNL1        0.0976
     20 C          64.5691   83.8054   14.4854 C.ar    1  UNL1        0.0937
     21 C          60.7497   89.5330    8.9621 C.1     1  UNL1        0.1032
     22 N          59.7648   89.1835    7.8860 N.1     1  UNL1       -0.1907
     23 N          61.2931   87.5937   11.1855 N.pl3   1  UNL1       -0.3119
     24 H          60.3666   87.5438   11.5146 H       1  UNL1        0.1522
     25 C          61.9916   86.3506   10.7197 C.ar    1  UNL1        0.0493
     26 C          62.4721   85.3410   11.7196 C.ar    1  UNL1        0.0170
     27 C          63.1705   84.0979   11.2538 C.ar    1  UNL1        0.0318
     28 C          63.3885   83.8645    9.7882 C.ar    1  UNL1        0.1507
     29 F          64.0869   82.6214    9.3225 F       1  UNL1       -0.2033
     30 C          62.9079   84.8741    8.7883 C.ar    1  UNL1        0.0863
     31 CL         63.1258   84.6407    7.3227 Cl      1  UNL1       -0.0799
     32 C          62.2095   86.1172    9.2541 C.ar    1  UNL1        0.0283
@<TRIPOS>BOND
     1    15    16    1
     2    16    17   ar
     3    17    18   ar
     4    18    19   ar
     5    19    14    1
     6    14    12    1
     7    12     1    1
     8     1     2   ar
     9     2     3   ar
    10     3     4    1
    11     3     5   ar
    12     5     6   ar
    13     6     7   ar
    14     7     8   ar
    15     8    21    1
    16    21    22    3
    17     8     9   ar
    18     9    23    1
    19    23    25    1
    20    25    26   ar
    21    26    27   ar
    22    27    28   ar
    23    28    29    1
    24    28    30   ar
    25    30    31    1
    26    30    32   ar
    27     9    10   ar
    28    10    11   ar
    29    19    20   ar
    30    20    16   ar
    31    11     1   ar
    32    10     5   ar
    33    32    25   ar
    34    12    13    1
    35    23    24    1
@<TRIPOS>MOLECULE
*****
 32 35 0 0 0
SMALL
GASTEIGER

@<TRIPOS>ATOM
      1 C          63.4028   84.5616    9.6291 C.ar    1  UNL1        0.0455
      2 C          62.8903   84.2333    8.2582 C.ar    1  UNL1        0.0225
      3 C          61.8524   85.1058    7.6167 C.ar    1  UNL1        0.0534
      4 BR         61.3399   84.7776    6.2457 Br      1  UNL1       -0.0474
      5 C          61.3271   86.3066    8.3461 C.ar    1  UNL1        0.0888
      6 N          60.2892   87.1792    7.7046 N.ar    1  UNL1       -0.2426
      7 C          59.7639   88.3800    8.4340 C.ar    1  UNL1        0.1103
      8 C          60.2764   88.7083    9.8050 C.ar    1  UNL1        0.1009
      9 C          61.3143   87.8357   10.4465 C.ar    1  UNL1        0.0610
     10 C          61.8396   86.6349    9.7171 C.ar    1  UNL1        0.0335
     11 C          62.8774   85.7624   10.3586 C.ar    1  UNL1        0.0171
     12 N          64.4407   83.6891   10.2707 N.pl3   1  UNL1       -0.3278
     13 H          65.3905   83.9455   10.2338 H       1  UNL1        0.1472
     14 C          64.0314   82.4259   10.9685 C.3     1  UNL1        0.1354
     15 C          62.4180   84.1340   15.6971 C.3     1  UNL1        0.1321
     16 N          62.6187   83.2780   14.4819 N.ar    1  UNL1       -0.3061
     17 C          62.0366   81.9137   14.2585 C.ar    1  UNL1        0.1783
     18 N          62.4949   81.4285   12.9151 N.ar    1  UNL1       -0.2266
     19 C          63.3603   82.4929   12.3084 C.ar    1  UNL1        0.0976
     20 C          63.4368   83.6359   13.2766 C.ar    1  UNL1        0.0937
     21 C          59.7511   89.9091   10.5345 C.1     1  UNL1        0.1032
     22 N          59.2258   91.1099   11.2639 N.1     1  UNL1       -0.1907
     23 N          61.8268   88.1640   11.8175 N.pl3   1  UNL1       -0.3119
     24 H          61.5542   87.6167   12.5890 H       1  UNL1        0.1522
     25 C          62.7547   89.3263   12.0129 C.ar    1  UNL1        0.0493
     26 C          63.0282   90.2669   10.8769 C.ar    1  UNL1        0.0170
     27 C          63.9560   91.4291   11.0723 C.ar    1  UNL1        0.0318
     28 C          64.6105   91.6508   12.4037 C.ar    1  UNL1        0.1507
     29 F          65.5384   92.8130   12.5991 F       1  UNL1       -0.2033
     30 C          64.3370   90.7101   13.5397 C.ar    1  UNL1        0.0863
     31 CL         64.9914   90.9318   14.8711 Cl      1  UNL1       -0.0799
     32 C          63.4091   89.5479   13.3443 C.ar    1  UNL1        0.0283
@<TRIPOS>BOND
     1    15    16    1
     2    16    17   ar
     3    17    18   ar
     4    18    19   ar
     5    19    14    1
     6    14    12    1
     7    12     1    1
     8     1     2   ar
     9     2     3   ar
    10     3     4    1
    11     3     5   ar
    12     5     6   ar
    13     6     7   ar
    14     7     8   ar
    15     8    21    1
    16    21    22    3
    17     8     9   ar
    18     9    23    1
    19    23    25    1
    20    25    26   ar
    21    26    27   ar
    22    27    28   ar
    23    28    29    1
    24    28    30   ar
    25    30    31    1
    26    30    32   ar
    27     9    10   ar
    28    10    11   ar
    29    19    20   ar
    30    20    16   ar
    31    11     1   ar
    32    10     5   ar
    33    32    25   ar
    34    12    13    1
    35    23    24    1
@<TRIPOS>MOLECULE
*****
 32 35 0 0 0
SMALL
GASTEIGER

@<TRIPOS>ATOM
      1 C          63.8293   84.8531   13.0341 C.ar    1  UNL1        0.0455
      2 C          64.1838   83.6927   12.1523 C.ar    1  UNL1        0.0225
      3 C          63.7263   83.6687   10.7240 C.ar    1  UNL1        0.0534
      4 BR         64.0809   82.5082    9.8422 Br      1  UNL1       -0.0474
      5 C          62.9142   84.8053   10.1775 C.ar    1  UNL1        0.0888
      6 N          62.4566   84.7813    8.7491 N.ar    1  UNL1       -0.2426
      7 C          61.6445   85.9179    8.2026 C.ar    1  UNL1        0.1103
      8 C          61.2899   87.0784    9.0844 C.ar    1  UNL1        0.1009
      9 C          61.7474   87.1023   10.5127 C.ar    1  UNL1        0.0610
     10 C          62.5596   85.9658   11.0592 C.ar    1  UNL1        0.0335
     11 C          63.0171   85.9897   12.4875 C.ar    1  UNL1        0.0171
     12 N          64.2868   84.8771   14.4624 N.pl3   1  UNL1       -0.3278
     13 H          64.6856   85.6952   14.8379 H       1  UNL1        0.1472
     14 C          64.1367   83.6547   15.3187 C.3     1  UNL1        0.1354
     15 C          60.0448   80.5622   14.0643 C.3     1  UNL1        0.1321
     16 N          61.4431   81.0708   14.2540 N.ar    1  UNL1       -0.3061
     17 C          62.7035   80.3362   13.9049 C.ar    1  UNL1        0.1783
     18 N          63.8659   81.2147   14.2612 N.ar    1  UNL1       -0.2266
     19 C          63.3239   82.4923   14.8305 C.ar    1  UNL1        0.0976
     20 C          61.8266   82.4033   14.8261 C.ar    1  UNL1        0.0937
     21 C          60.4778   88.2149    8.5379 C.1     1  UNL1        0.1032
     22 N          59.6656   89.3515    7.9914 N.1     1  UNL1       -0.1907
     23 N          61.3929   88.2628   11.3945 N.pl3   1  UNL1       -0.3119
     24 H          60.5251   88.2808   11.8591 H       1  UNL1        0.1522
     25 C          62.3604   89.3958   11.5682 C.ar    1  UNL1        0.0493
     26 C          62.6163   90.3440   10.4345 C.ar    1  UNL1        0.0170
     27 C          63.5838   91.4771   10.6083 C.ar    1  UNL1        0.0318
     28 C          64.2954   91.6619   11.9157 C.ar    1  UNL1        0.1507
     29 F          65.2629   92.7949   12.0895 F       1  UNL1       -0.2033
     30 C          64.0394   90.7136   13.0495 C.ar    1  UNL1        0.0863
     31 CL         64.7510   90.8985   14.3570 Cl      1  UNL1       -0.0799
     32 C          63.0719   89.5806   12.8758 C.ar    1  UNL1        0.0283
@<TRIPOS>BOND
     1    15    16    1
     2    16    17   ar
     3    17    18   ar
     4    18    19   ar
     5    19    14    1
     6    14    12    1
     7    12     1    1
     8     1     2   ar
     9     2     3   ar
    10     3     4    1
    11     3     5   ar
    12     5     6   ar
    13     6     7   ar
    14     7     8   ar
    15     8    21    1
    16    21    22    3
    17     8     9   ar
    18     9    23    1
    19    23    25    1
    20    25    26   ar
    21    26    27   ar
    22    27    28   ar
    23    28    29    1
    24    28    30   ar
    25    30    31    1
    26    30    32   ar
    27     9    10   ar
    28    10    11   ar
    29    19    20   ar
    30    20    16   ar
    31    11     1   ar
    32    10     5   ar
    33    32    25   ar
    34    12    13    1
    35    23    24    1
@<TRIPOS>MOLECULE
*****
 32 35 0 0 0
SMALL
GASTEIGER

@<TRIPOS>ATOM
      1 C          63.2848   84.7646   10.4683 C.ar    1  UNL1        0.0455
      2 C          62.9377   84.3876    9.0586 C.ar    1  UNL1        0.0225
      3 C          62.0197   85.2590    8.2536 C.ar    1  UNL1        0.0534
      4 BR         61.6726   84.8820    6.8438 Br      1  UNL1       -0.0474
      5 C          61.4488   86.5073    8.8584 C.ar    1  UNL1        0.0888
      6 N          60.5308   87.3787    8.0533 N.ar    1  UNL1       -0.2426
      7 C          59.9598   88.6270    8.6581 C.ar    1  UNL1        0.1103
      8 C          60.3069   89.0039   10.0679 C.ar    1  UNL1        0.1009
      9 C          61.2249   88.1326   10.8729 C.ar    1  UNL1        0.0610
     10 C          61.7958   86.8843   10.2681 C.ar    1  UNL1        0.0335
     11 C          62.7138   86.0129   11.0731 C.ar    1  UNL1        0.0171
     12 N          64.2028   83.8932   11.2734 N.pl3   1  UNL1       -0.3278
     13 H          65.0966   83.6679   10.9275 H       1  UNL1        0.1472
     14 C          63.7591   83.3653   12.6054 C.3     1  UNL1        0.1354
     15 C          62.3837   85.7377   17.1176 C.3     1  UNL1        0.1321
     16 N          63.1434   85.3497   15.8839 N.ar    1  UNL1       -0.3061
     17 C          64.4587   85.9200   15.4426 C.ar    1  UNL1        0.1783
     18 N          64.8495   85.2460   14.1607 N.ar    1  UNL1       -0.2266
     19 C          63.7756   84.2592   13.8098 C.ar    1  UNL1        0.0976
     20 C          62.7212   84.3233   14.8748 C.ar    1  UNL1        0.0937
     21 C          59.7360   90.2522   10.6727 C.1     1  UNL1        0.1032
     22 N          59.1650   91.5005   11.2775 N.1     1  UNL1       -0.1907
     23 N          61.5719   88.5095   12.2826 N.pl3   1  UNL1       -0.3119
     24 H          61.0453   88.1492   13.0324 H       1  UNL1        0.1522
     25 C          62.7213   89.4355   12.5501 C.ar    1  UNL1        0.0493
     26 C          63.4709   89.3456   13.8463 C.ar    1  UNL1        0.0170
     27 C          64.6202   90.2716   14.1137 C.ar    1  UNL1        0.0318
     28 C          65.0200   91.2874   13.0851 C.ar    1  UNL1        0.1507
     29 F          66.1694   92.2134   13.3525 F       1  UNL1       -0.2033
     30 C          64.2704   91.3773   11.7888 C.ar    1  UNL1        0.0863
     31 CL         64.6702   92.3932   10.7602 Cl      1  UNL1       -0.0799
     32 C          63.1211   90.4514   11.5214 C.ar    1  UNL1        0.0283
@<TRIPOS>BOND
     1    15    16    1
     2    16    17   ar
     3    17    18   ar
     4    18    19   ar
     5    19    14    1
     6    14    12    1
     7    12     1    1
     8     1     2   ar
     9     2     3   ar
    10     3     4    1
    11     3     5   ar
    12     5     6   ar
    13     6     7   ar
    14     7     8   ar
    15     8    21    1
    16    21    22    3
    17     8     9   ar
    18     9    23    1
    19    23    25    1
    20    25    26   ar
    21    26    27   ar
    22    27    28   ar
    23    28    29    1
    24    28    30   ar
    25    30    31    1
    26    30    32   ar
    27     9    10   ar
    28    10    11   ar
    29    19    20   ar
    30    20    16   ar
    31    11     1   ar
    32    10     5   ar
    33    32    25   ar
    34    12    13    1
    35    23    24    1
@<TRIPOS>MOLECULE
*****
 32 35 0 0 0
SMALL
GASTEIGER

@<TRIPOS>ATOM
      1 C          61.9186   86.3312   10.7391 C.ar    1  UNL1        0.0455
      2 C          61.0227   87.0707    9.7902 C.ar    1  UNL1        0.0225
      3 C          61.0170   88.5706    9.7790 C.ar    1  UNL1        0.0534
      4 BR         60.1210   89.3101    8.8300 Br      1  UNL1       -0.0474
      5 C          61.9072   89.3310   10.7166 C.ar    1  UNL1        0.0888
      6 N          61.9015   90.8310   10.7053 N.ar    1  UNL1       -0.2426
      7 C          62.7917   91.5915   11.6430 C.ar    1  UNL1        0.1103
      8 C          63.6877   90.8520   12.5919 C.ar    1  UNL1        0.1009
      9 C          63.6934   89.3520   12.6031 C.ar    1  UNL1        0.0610
     10 C          62.8031   88.5916   11.6655 C.ar    1  UNL1        0.0335
     11 C          62.8089   87.0917   11.6767 C.ar    1  UNL1        0.0171
     12 N          61.9244   84.8312   10.7504 N.pl3   1  UNL1       -0.3278
     13 H          61.0904   84.3345   10.5857 H       1  UNL1        0.1472
     14 C          63.2007   84.0880   11.0125 C.3     1  UNL1        0.1354
     15 C          62.2702   79.6451   13.7096 C.3     1  UNL1        0.1321
     16 N          62.8183   80.9827   13.3095 N.ar    1  UNL1       -0.3061
     17 C          63.8132   81.7954   14.0840 C.ar    1  UNL1        0.1783
     18 N          64.0775   83.0576   13.3178 N.ar    1  UNL1       -0.2266
     19 C          63.2460   83.0249   12.0698 C.ar    1  UNL1        0.0976
     20 C          62.4677   81.7426   12.0647 C.ar    1  UNL1        0.0937
     21 C          64.5779   91.6124   13.5295 C.1     1  UNL1        0.1032
     22 N          65.4681   92.3729   14.4672 N.1     1  UNL1       -0.1907
     23 N          64.5893   88.6126   13.5520 N.pl3   1  UNL1       -0.3119
     24 H          65.5418   88.4899   13.3352 H       1  UNL1        0.1522
     25 C          64.0341   88.0601   14.8313 C.ar    1  UNL1        0.0493
     26 C          63.5447   88.9914   15.9005 C.ar    1  UNL1        0.0170
     27 C          62.9895   88.4389   17.1798 C.ar    1  UNL1        0.0318
     28 C          62.9238   86.9552   17.3899 C.ar    1  UNL1        0.1507
     29 F          62.3686   86.4027   18.6691 F       1  UNL1       -0.2033
     30 C          63.4132   86.0238   16.3206 C.ar    1  UNL1        0.0863
     31 CL         63.3474   84.5401   16.5307 Cl      1  UNL1       -0.0799
     32 C          63.9684   86.5763   15.0414 C.ar    1  UNL1        0.0283
@<TRIPOS>BOND
     1    15    16    1
     2    16    17   ar
     3    17    18   ar
     4    18    19   ar
     5    19    14    1
     6    14    12    1
     7    12     1    1
     8     1     2   ar
     9     2     3   ar
    10     3     4    1
    11     3     5   ar
    12     5     6   ar
    13     6     7   ar
    14     7     8   ar
    15     8    21    1
    16    21    22    3
    17     8     9   ar
    18     9    23    1
    19    23    25    1
    20    25    26   ar
    21    26    27   ar
    22    27    28   ar
    23    28    29    1
    24    28    30   ar
    25    30    31    1
    26    30    32   ar
    27     9    10   ar
    28    10    11   ar
    29    19    20   ar
    30    20    16   ar
    31    11     1   ar
    32    10     5   ar
    33    32    25   ar
    34    12    13    1
    35    23    24    1
@<TRIPOS>MOLECULE
*****
 32 35 0 0 0
SMALL
GASTEIGER

@<TRIPOS>ATOM
      1 C          64.1834   89.4164   13.8007 C.ar    1  UNL1        0.0455
      2 C          64.6534   90.7528   13.3079 C.ar    1  UNL1        0.0225
      3 C          64.1456   91.2921   12.0035 C.ar    1  UNL1        0.0534
      4 BR         64.6155   92.6286   11.5106 Br      1  UNL1       -0.0474
      5 C          63.1679   90.4948   11.1921 C.ar    1  UNL1        0.0888
      6 N          62.6601   91.0341    9.8877 N.ar    1  UNL1       -0.2426
      7 C          61.6823   90.2369    9.0762 C.ar    1  UNL1        0.1103
      8 C          61.2124   88.9003    9.5692 C.ar    1  UNL1        0.1009
      9 C          61.7202   88.3611   10.8735 C.ar    1  UNL1        0.0610
     10 C          62.6979   89.1584   11.6850 C.ar    1  UNL1        0.0335
     11 C          63.2057   88.6191   12.9893 C.ar    1  UNL1        0.0171
     12 N          64.6912   88.8771   15.1051 N.pl3   1  UNL1       -0.3278
     13 H          65.6457   88.9570   15.3327 H       1  UNL1        0.1472
     14 C          63.7447   88.2162   16.0629 C.3     1  UNL1        0.1354
     15 C          64.3962   83.0747   15.0522 C.3     1  UNL1        0.1321
     16 N          63.8094   84.3734   15.5199 N.ar    1  UNL1       -0.3061
     17 C          62.4876   84.5467   16.2078 C.ar    1  UNL1        0.1783
     18 N          62.3026   86.0074   16.4949 N.ar    1  UNL1       -0.2266
     19 C          63.5099   86.7367   15.9845 C.ar    1  UNL1        0.0976
     20 C          64.4411   85.7269   15.3819 C.ar    1  UNL1        0.0937
     21 C          60.2347   88.1031    8.7577 C.1     1  UNL1        0.1032
     22 N          59.2569   87.3058    7.9463 N.1     1  UNL1       -0.1907
     23 N          61.2502   87.0247   11.3664 N.pl3   1  UNL1       -0.3119
     24 H          60.4450   86.9630   11.9294 H       1  UNL1        0.1522
     25 C          62.0072   85.7821   11.0015 C.ar    1  UNL1        0.0493
     26 C          62.6590   85.6691    9.6553 C.ar    1  UNL1        0.0170
     27 C          63.4160   84.4266    9.2905 C.ar    1  UNL1        0.0318
     28 C          63.5212   83.2971   10.2718 C.ar    1  UNL1        0.1507
     29 F          64.2782   82.0546    9.9069 F       1  UNL1       -0.2033
     30 C          62.8694   83.4101   11.6181 C.ar    1  UNL1        0.0863
     31 CL         62.9746   82.2806   12.5995 Cl      1  UNL1       -0.0799
     32 C          62.1124   84.6526   11.9830 C.ar    1  UNL1        0.0283
@<TRIPOS>BOND
     1    15    16    1
     2    16    17   ar
     3    17    18   ar
     4    18    19   ar
     5    19    14    1
     6    14    12    1
     7    12     1    1
     8     1     2   ar
     9     2     3   ar
    10     3     4    1
    11     3     5   ar
    12     5     6   ar
    13     6     7   ar
    14     7     8   ar
    15     8    21    1
    16    21    22    3
    17     8     9   ar
    18     9    23    1
    19    23    25    1
    20    25    26   ar
    21    26    27   ar
    22    27    28   ar
    23    28    29    1
    24    28    30   ar
    25    30    31    1
    26    30    32   ar
    27     9    10   ar
    28    10    11   ar
    29    19    20   ar
    30    20    16   ar
    31    11     1   ar
    32    10     5   ar
    33    32    25   ar
    34    12    13    1
    35    23    24    1
