@<TRIPOS>MOLECULE
*****
 28 32 0 0 0
SMALL
GASTEIGER

@<TRIPOS>ATOM
      1 C          60.7639   87.5369    9.6205 C.ar    1  UNL1        0.1722
      2 C          60.9738   88.8344    8.8976 C.ar    1  UNL1        0.0400
      3 C          61.9084   89.8638    9.4603 C.ar    1  UNL1        0.0032
      4 C          62.6332   89.5957   10.7460 C.ar    1  UNL1        0.0043
      5 C          62.4233   88.2982   11.4689 C.ar    1  UNL1        0.0611
      6 C          61.4886   87.2689   10.9061 C.ar    1  UNL1        0.1723
      7 C          63.1480   88.0302   12.7546 C.3     1  UNL1        0.2194
      8 N          64.0827   89.0596   13.3173 N.pl3   1  UNL1       -0.2807
      9 C          64.8074   88.7916   14.6029 C.3     1  UNL1        0.1147
     10 C          64.2925   90.3571   12.5944 C.ar    1  UNL1        0.0498
     11 C          63.5678   90.6251   11.3088 C.ar    1  UNL1        0.0133
     12 C          63.7777   91.9227   10.5860 C.ar    1  UNL1        0.0012
     13 C          64.7124   92.9521   11.1487 C.ar    1  UNL1        0.0002
     14 C          65.4371   92.6840   12.4344 C.ar    1  UNL1        0.0044
     15 C          66.3718   93.7134   12.9972 C.ar    1  UNL1        0.0402
     16 C          67.0965   93.4454   14.2828 C.ar    1  UNL1        0.1764
     17 C          66.8866   92.1479   15.0057 C.ar    1  UNL1        0.1765
     18 C          65.9520   91.1185   14.4429 C.ar    1  UNL1        0.0414
     19 C          65.2272   91.3866   13.1572 C.ar    1  UNL1        0.0166
     20 O          67.7329   92.1650   16.2440 O.3     1  UNL1       -0.4346
     21 C          68.4659   93.4731   16.2865 C.3     1  UNL1        0.4294
     22 O          68.0725   94.2644   15.0744 O.3     1  UNL1       -0.4346
     23 C          59.0768   86.7900    7.7912 C.3     1  UNL1        0.2526
     24 O          59.8292   86.5075    9.0577 O.3     1  UNL1       -0.4684
     25 O          61.2787   85.9714   11.6289 O.3     1  UNL1       -0.4686
     26 C          62.0341   84.7465   11.2058 C.3     1  UNL1        0.2526
     27 O          62.9382   86.7327   13.4774 O.3     1  UNL1       -0.3313
     28 C          64.1156   85.8768   13.8393 C.3     1  UNL1        0.1764
@<TRIPOS>BOND
     1    23    24    1
     2    24     1    1
     3     1     2   ar
     4     2     3   ar
     5     3     4   ar
     6     4     5   ar
     7     5     6   ar
     8     6    25    1
     9    25    26    1
    10     5     7    1
    11     7    27    1
    12    27    28    1
    13     7     8    1
    14     8     9    1
    15     8    10    1
    16    10    11   ar
    17    11    12   ar
    18    12    13   ar
    19    13    14   ar
    20    14    15   ar
    21    15    16   ar
    22    16    17   ar
    23    17    18   ar
    24    18    19   ar
    25    17    20    1
    26    20    21    1
    27    21    22    1
    28     6     1   ar
    29    19    10   ar
    30    11     4    1
    31    19    14   ar
    32    22    16    1
@<TRIPOS>MOLECULE
*****
 28 32 0 0 0
SMALL
GASTEIGER

@<TRIPOS>ATOM
      1 C          64.2714   91.2819   13.0679 C.ar    1  UNL1        0.1722
      2 C          64.9423   90.7770   14.3109 C.ar    1  UNL1        0.0400
      3 C          64.8861   89.3177   14.6535 C.ar    1  UNL1        0.0032
      4 C          64.1592   88.3634   13.7529 C.ar    1  UNL1        0.0043
      5 C          63.4883   88.8684   12.5099 C.ar    1  UNL1        0.0611
      6 C          63.5445   90.3276   12.1675 C.ar    1  UNL1        0.1723
      7 C          62.7614   87.9141   11.6094 C.3     1  UNL1        0.2194
      8 N          62.7053   86.4548   11.9520 N.pl3   1  UNL1       -0.2807
      9 C          61.9784   85.5005   11.0515 C.3     1  UNL1        0.1147
     10 C          63.3761   85.9498   13.1949 C.ar    1  UNL1        0.0498
     11 C          64.1031   86.9041   14.0954 C.ar    1  UNL1        0.0133
     12 C          64.7739   86.3990   15.3384 C.ar    1  UNL1        0.0012
     13 C          64.7177   84.9398   15.6809 C.ar    1  UNL1        0.0002
     14 C          63.9908   83.9855   14.7804 C.ar    1  UNL1        0.0044
     15 C          63.9347   82.5262   15.1229 C.ar    1  UNL1        0.0402
     16 C          63.2077   81.5719   14.2224 C.ar    1  UNL1        0.1764
     17 C          62.5369   82.0769   12.9794 C.ar    1  UNL1        0.1765
     18 C          62.5930   83.5361   12.6369 C.ar    1  UNL1        0.0414
     19 C          63.3200   84.4904   13.5375 C.ar    1  UNL1        0.0166
     20 O          61.8996   80.9077   12.2889 O.3     1  UNL1       -0.4346
     21 C          62.1766   79.6801   13.1052 C.3     1  UNL1        0.4294
     22 O          62.9850   80.0905   14.3001 O.3     1  UNL1       -0.4346
     23 C          65.6312   93.3695   12.3307 C.3     1  UNL1        0.2526
     24 O          64.3275   92.7412   12.7254 O.3     1  UNL1       -0.4684
     25 O          62.8737   90.8327   10.9245 O.3     1  UNL1       -0.4686
     26 C          63.6641   91.5950    9.9027 C.3     1  UNL1        0.2526
     27 O          62.0906   88.4190   10.3664 O.3     1  UNL1       -0.3313
     28 C          60.5973   88.5532   10.3218 C.3     1  UNL1        0.1764
@<TRIPOS>BOND
     1    23    24    1
     2    24     1    1
     3     1     2   ar
     4     2     3   ar
     5     3     4   ar
     6     4     5   ar
     7     5     6   ar
     8     6    25    1
     9    25    26    1
    10     5     7    1
    11     7    27    1
    12    27    28    1
    13     7     8    1
    14     8     9    1
    15     8    10    1
    16    10    11   ar
    17    11    12   ar
    18    12    13   ar
    19    13    14   ar
    20    14    15   ar
    21    15    16   ar
    22    16    17   ar
    23    17    18   ar
    24    18    19   ar
    25    17    20    1
    26    20    21    1
    27    21    22    1
    28     6     1   ar
    29    19    10   ar
    30    11     4    1
    31    19    14   ar
    32    22    16    1
@<TRIPOS>MOLECULE
*****
 28 32 0 0 0
SMALL
GASTEIGER

@<TRIPOS>ATOM
      1 C          63.0871   86.0384   14.0188 C.ar    1  UNL1        0.1722
      2 C          63.9605   86.6062   15.0981 C.ar    1  UNL1        0.0400
      3 C          64.5342   87.9843   14.9511 C.ar    1  UNL1        0.0032
      4 C          64.2346   88.7946   13.7248 C.ar    1  UNL1        0.0043
      5 C          63.3612   88.2267   12.6455 C.ar    1  UNL1        0.0611
      6 C          62.7875   86.8487   12.7926 C.ar    1  UNL1        0.1723
      7 C          63.0617   89.0370   11.4192 C.3     1  UNL1        0.2194
      8 N          63.6355   90.4151   11.2722 N.pl3   1  UNL1       -0.2807
      9 C          63.3359   91.2253   10.0460 C.3     1  UNL1        0.1147
     10 C          64.5088   90.9829   12.3515 C.ar    1  UNL1        0.0498
     11 C          64.8084   90.1726   13.5778 C.ar    1  UNL1        0.0133
     12 C          65.6818   90.7405   14.6570 C.ar    1  UNL1        0.0012
     13 C          66.2556   92.1186   14.5100 C.ar    1  UNL1        0.0002
     14 C          65.9560   92.9289   13.2837 C.ar    1  UNL1        0.0044
     15 C          66.5298   94.3070   13.1367 C.ar    1  UNL1        0.0402
     16 C          66.2302   95.1172   11.9104 C.ar    1  UNL1        0.1764
     17 C          65.3568   94.5494   10.8312 C.ar    1  UNL1        0.1765
     18 C          64.7830   93.1713   10.9781 C.ar    1  UNL1        0.0414
     19 C          65.0827   92.3611   12.2045 C.ar    1  UNL1        0.0166
     20 O          65.2375   95.5755    9.7436 O.3     1  UNL1       -0.4346
     21 C          66.0371   96.7775   10.1507 C.3     1  UNL1        0.4294
     22 O          66.6506   96.4943   11.4899 O.3     1  UNL1       -0.4346
     23 C          62.9649   83.7757   15.2900 C.3     1  UNL1        0.2526
     24 O          62.5133   84.6603   14.1658 O.3     1  UNL1       -0.4684
     25 O          61.9141   86.2807   11.7133 O.3     1  UNL1       -0.4686
     26 C          62.4284   85.1796   10.8342 C.3     1  UNL1        0.2526
     27 O          62.1883   88.4692   10.3400 O.3     1  UNL1       -0.3313
     28 C          60.7639   88.9217   10.2121 C.3     1  UNL1        0.1764
@<TRIPOS>BOND
     1    23    24    1
     2    24     1    1
     3     1     2   ar
     4     2     3   ar
     5     3     4   ar
     6     4     5   ar
     7     5     6   ar
     8     6    25    1
     9    25    26    1
    10     5     7    1
    11     7    27    1
    12    27    28    1
    13     7     8    1
    14     8     9    1
    15     8    10    1
    16    10    11   ar
    17    11    12   ar
    18    12    13   ar
    19    13    14   ar
    20    14    15   ar
    21    15    16   ar
    22    16    17   ar
    23    17    18   ar
    24    18    19   ar
    25    17    20    1
    26    20    21    1
    27    21    22    1
    28     6     1   ar
    29    19    10   ar
    30    11     4    1
    31    19    14   ar
    32    22    16    1
@<TRIPOS>MOLECULE
*****
 28 32 0 0 0
SMALL
GASTEIGER

@<TRIPOS>ATOM
      1 C          63.9193   90.4400   13.8383 C.ar    1  UNL1        0.1722
      2 C          64.3820   89.6758   15.0432 C.ar    1  UNL1        0.0400
      3 C          64.3448   88.1763   15.0400 C.ar    1  UNL1        0.0032
      4 C          63.8449   87.4410   13.8318 C.ar    1  UNL1        0.0043
      5 C          63.3822   88.2053   12.6269 C.ar    1  UNL1        0.0611
      6 C          63.4195   89.7048   12.6302 C.ar    1  UNL1        0.1723
      7 C          62.8824   87.4700   11.4188 C.3     1  UNL1        0.2194
      8 N          62.8452   85.9705   11.4156 N.pl3   1  UNL1       -0.2807
      9 C          62.3453   85.2353   10.2075 C.3     1  UNL1        0.1147
     10 C          63.3078   85.2063   12.6205 C.ar    1  UNL1        0.0498
     11 C          63.8077   85.9415   13.8286 C.ar    1  UNL1        0.0133
     12 C          64.2704   85.1771   15.0335 C.ar    1  UNL1        0.0012
     13 C          64.2332   83.6776   15.0304 C.ar    1  UNL1        0.0002
     14 C          63.7333   82.9424   13.8222 C.ar    1  UNL1        0.0044
     15 C          63.6961   81.4429   13.8190 C.ar    1  UNL1        0.0402
     16 C          63.1962   80.7076   12.6109 C.ar    1  UNL1        0.1764
     17 C          62.7335   81.4719   11.4060 C.ar    1  UNL1        0.1765
     18 C          62.7707   82.9714   11.4092 C.ar    1  UNL1        0.0414
     19 C          63.2706   83.7066   12.6173 C.ar    1  UNL1        0.0166
     20 O          62.2956   80.4810   10.3685 O.3     1  UNL1       -0.4346
     21 C          62.4877   79.1043   10.9322 C.3     1  UNL1        0.4294
     22 O          63.0443   79.2443   12.3181 O.3     1  UNL1       -0.4346
     23 C          65.2692   92.6576   13.7338 C.3     1  UNL1        0.2526
     24 O          63.9565   91.9396   13.8414 O.3     1  UNL1       -0.4684
     25 O          62.9568   90.4692   11.4253 O.3     1  UNL1       -0.4686
     26 C          63.9255   91.3218   10.6606 C.3     1  UNL1        0.2526
     27 O          62.4197   88.2343   10.2139 O.3     1  UNL1       -0.3313
     28 C          60.9529   88.3815    9.9368 C.3     1  UNL1        0.1764
@<TRIPOS>BOND
     1    23    24    1
     2    24     1    1
     3     1     2   ar
     4     2     3   ar
     5     3     4   ar
     6     4     5   ar
     7     5     6   ar
     8     6    25    1
     9    25    26    1
    10     5     7    1
    11     7    27    1
    12    27    28    1
    13     7     8    1
    14     8     9    1
    15     8    10    1
    16    10    11   ar
    17    11    12   ar
    18    12    13   ar
    19    13    14   ar
    20    14    15   ar
    21    15    16   ar
    22    16    17   ar
    23    17    18   ar
    24    18    19   ar
    25    17    20    1
    26    20    21    1
    27    21    22    1
    28     6     1   ar
    29    19    10   ar
    30    11     4    1
    31    19    14   ar
    32    22    16    1
@<TRIPOS>MOLECULE
*****
 28 32 0 0 0
SMALL
GASTEIGER

@<TRIPOS>ATOM
      1 C          62.2088   92.6920    1.9500 C.ar    1  UNL1        0.1722
      2 C          60.7755   92.6239    2.3870 C.ar    1  UNL1        0.0400
      3 C          59.6804   92.9743    1.4237 C.ar    1  UNL1        0.0032
      4 C          60.0187   93.3928    0.0234 C.ar    1  UNL1        0.0043
      5 C          61.4520   93.4608   -0.4135 C.ar    1  UNL1        0.0611
      6 C          62.5471   93.1104    0.5499 C.ar    1  UNL1        0.1723
      7 C          61.7903   93.8792   -1.8136 C.3     1  UNL1        0.2194
      8 N          60.6952   94.2296   -2.7769 N.pl3   1  UNL1       -0.2807
      9 C          61.0334   94.6480   -4.1771 C.3     1  UNL1        0.1147
     10 C          59.2618   94.1616   -2.3400 C.ar    1  UNL1        0.0498
     11 C          58.9236   93.7432   -0.9398 C.ar    1  UNL1        0.0133
     12 C          57.4902   93.6752   -0.5030 C.ar    1  UNL1        0.0012
     13 C          56.3950   94.0256   -1.4663 C.ar    1  UNL1        0.0002
     14 C          56.7333   94.4440   -2.8665 C.ar    1  UNL1        0.0044
     15 C          55.6382   94.7944   -3.8298 C.ar    1  UNL1        0.0402
     16 C          55.9765   95.2128   -5.2299 C.ar    1  UNL1        0.1764
     17 C          57.4098   95.2808   -5.6669 C.ar    1  UNL1        0.1765
     18 C          58.5049   94.9304   -4.7036 C.ar    1  UNL1        0.0414
     19 C          58.1666   94.5120   -3.3033 C.ar    1  UNL1        0.0166
     20 O          57.4372   95.7240   -7.0996 O.3     1  UNL1       -0.4346
     21 C          56.0207   95.9299   -7.5482 C.3     1  UNL1        0.4294
     22 O          55.1179   95.6140   -6.3927 O.3     1  UNL1       -0.4346
     23 C          63.5347   90.9103    3.2984 C.3     1  UNL1        0.2526
     24 O          63.3040   92.3416    2.9133 O.3     1  UNL1       -0.4684
     25 O          63.9805   93.1784    0.1130 O.3     1  UNL1       -0.4686
     26 C          64.8847   94.2377    0.6700 C.3     1  UNL1        0.2526
     27 O          63.2236   93.9472   -2.2505 O.3     1  UNL1       -0.3313
     28 C          63.7766   92.9026   -3.1741 C.3     1  UNL1        0.1764
@<TRIPOS>BOND
     1    23    24    1
     2    24     1    1
     3     1     2   ar
     4     2     3   ar
     5     3     4   ar
     6     4     5   ar
     7     5     6   ar
     8     6    25    1
     9    25    26    1
    10     5     7    1
    11     7    27    1
    12    27    28    1
    13     7     8    1
    14     8     9    1
    15     8    10    1
    16    10    11   ar
    17    11    12   ar
    18    12    13   ar
    19    13    14   ar
    20    14    15   ar
    21    15    16   ar
    22    16    17   ar
    23    17    18   ar
    24    18    19   ar
    25    17    20    1
    26    20    21    1
    27    21    22    1
    28     6     1   ar
    29    19    10   ar
    30    11     4    1
    31    19    14   ar
    32    22    16    1
@<TRIPOS>MOLECULE
*****
 28 32 0 0 0
SMALL
GASTEIGER

@<TRIPOS>ATOM
      1 C          63.6052   91.2043   11.8088 C.ar    1  UNL1        0.1722
      2 C          63.1158   90.6080   10.5224 C.ar    1  UNL1        0.0400
      3 C          62.8881   89.1289   10.4201 C.ar    1  UNL1        0.0032
      4 C          63.1500   88.2462   11.6044 C.ar    1  UNL1        0.0043
      5 C          63.6394   88.8425   12.8908 C.ar    1  UNL1        0.0611
      6 C          63.8670   90.3216   12.9930 C.ar    1  UNL1        0.1723
      7 C          63.9012   87.9598   14.0749 C.3     1  UNL1        0.2194
      8 N          63.6735   86.4807   13.9727 N.pl3   1  UNL1       -0.2807
      9 C          63.9353   85.5979   15.1568 C.3     1  UNL1        0.1147
     10 C          63.1841   85.8843   12.6863 C.ar    1  UNL1        0.0498
     11 C          62.9223   86.7671   11.5021 C.ar    1  UNL1        0.0133
     12 C          62.4329   86.1706   10.2157 C.ar    1  UNL1        0.0012
     13 C          62.2052   84.6916   10.1134 C.ar    1  UNL1        0.0002
     14 C          62.4670   83.8088   11.2977 C.ar    1  UNL1        0.0044
     15 C          62.2394   82.3298   11.1954 C.ar    1  UNL1        0.0402
     16 C          62.5012   81.4470   12.3796 C.ar    1  UNL1        0.1764
     17 C          62.9906   82.0434   13.6660 C.ar    1  UNL1        0.1765
     18 C          63.2182   83.5224   13.7683 C.ar    1  UNL1        0.0414
     19 C          62.9564   84.4052   12.5840 C.ar    1  UNL1        0.0166
     20 O          63.1606   80.9308   14.6576 O.3     1  UNL1       -0.4346
     21 C          62.7762   79.6469   13.9840 C.3     1  UNL1        0.4294
     22 O          62.3687   79.9659   12.5762 O.3     1  UNL1       -0.4346
     23 C          65.0954   93.2871   11.3711 C.3     1  UNL1        0.2526
     24 O          63.8329   92.6834   11.9111 O.3     1  UNL1       -0.4684
     25 O          64.3564   90.9180   14.2794 O.3     1  UNL1       -0.4686
     26 C          65.7920   91.3310   14.4162 C.3     1  UNL1        0.2526
     27 O          64.3906   88.5561   15.3613 O.3     1  UNL1       -0.3313
     28 C          63.4186   88.8721   16.4592 C.3     1  UNL1        0.1764
@<TRIPOS>BOND
     1    23    24    1
     2    24     1    1
     3     1     2   ar
     4     2     3   ar
     5     3     4   ar
     6     4     5   ar
     7     5     6   ar
     8     6    25    1
     9    25    26    1
    10     5     7    1
    11     7    27    1
    12    27    28    1
    13     7     8    1
    14     8     9    1
    15     8    10    1
    16    10    11   ar
    17    11    12   ar
    18    12    13   ar
    19    13    14   ar
    20    14    15   ar
    21    15    16   ar
    22    16    17   ar
    23    17    18   ar
    24    18    19   ar
    25    17    20    1
    26    20    21    1
    27    21    22    1
    28     6     1   ar
    29    19    10   ar
    30    11     4    1
    31    19    14   ar
    32    22    16    1
@<TRIPOS>MOLECULE
*****
 28 32 0 0 0
SMALL
GASTEIGER

@<TRIPOS>ATOM
      1 C          63.8435   94.2869    1.1069 C.ar    1  UNL1        0.1722
      2 C          62.6470   93.6716    1.7701 C.ar    1  UNL1        0.0400
      3 C          61.4158   93.3721    0.9673 C.ar    1  UNL1        0.0032
      4 C          61.3812   93.6879   -0.4987 C.ar    1  UNL1        0.0043
      5 C          62.5777   94.3032   -1.1619 C.ar    1  UNL1        0.0611
      6 C          63.8088   94.6026   -0.3591 C.ar    1  UNL1        0.1723
      7 C          62.5430   94.6189   -2.6279 C.3     1  UNL1        0.2194
      8 N          61.3118   94.3194   -3.4306 N.pl3   1  UNL1       -0.2807
      9 C          61.2771   94.6351   -4.8966 C.3     1  UNL1        0.1147
     10 C          60.1153   93.7041   -2.7674 C.ar    1  UNL1        0.0498
     11 C          60.1500   93.3884   -1.3015 C.ar    1  UNL1        0.0133
     12 C          58.9534   92.7731   -0.6383 C.ar    1  UNL1        0.0012
     13 C          57.7223   92.4735   -1.4411 C.ar    1  UNL1        0.0002
     14 C          57.6876   92.7893   -2.9071 C.ar    1  UNL1        0.0044
     15 C          56.4564   92.4898   -3.7099 C.ar    1  UNL1        0.0402
     16 C          56.4218   92.8056   -5.1759 C.ar    1  UNL1        0.1764
     17 C          57.6183   93.4208   -5.8391 C.ar    1  UNL1        0.1765
     18 C          58.8495   93.7204   -5.0363 C.ar    1  UNL1        0.0414
     19 C          58.8841   93.4046   -3.5703 C.ar    1  UNL1        0.0166
     20 O          57.2930   93.6199   -7.2898 O.3     1  UNL1       -0.4346
     21 C          55.8954   93.1276   -7.5231 C.3     1  UNL1        0.4294
     22 O          55.3570   92.6244   -6.2167 O.3     1  UNL1       -0.4346
     23 C          65.0834   95.7411    2.8671 C.3     1  UNL1        0.2526
     24 O          65.0747   94.5864    1.9097 O.3     1  UNL1       -0.4684
     25 O          65.0054   95.2179   -1.0222 O.3     1  UNL1       -0.4686
     26 C          65.3892   96.6344   -0.7118 C.3     1  UNL1        0.2526
     27 O          63.7395   95.2342   -3.2911 O.3     1  UNL1       -0.3313
     28 C          64.6367   94.3927   -4.1495 C.3     1  UNL1        0.1764
@<TRIPOS>BOND
     1    23    24    1
     2    24     1    1
     3     1     2   ar
     4     2     3   ar
     5     3     4   ar
     6     4     5   ar
     7     5     6   ar
     8     6    25    1
     9    25    26    1
    10     5     7    1
    11     7    27    1
    12    27    28    1
    13     7     8    1
    14     8     9    1
    15     8    10    1
    16    10    11   ar
    17    11    12   ar
    18    12    13   ar
    19    13    14   ar
    20    14    15   ar
    21    15    16   ar
    22    16    17   ar
    23    17    18   ar
    24    18    19   ar
    25    17    20    1
    26    20    21    1
    27    21    22    1
    28     6     1   ar
    29    19    10   ar
    30    11     4    1
    31    19    14   ar
    32    22    16    1
@<TRIPOS>MOLECULE
*****
 28 32 0 0 0
SMALL
GASTEIGER

@<TRIPOS>ATOM
      1 C          63.5228   96.1598   -4.5393 C.ar    1  UNL1        0.1722
      2 C          64.6865   95.5639   -3.8039 C.ar    1  UNL1        0.0400
      3 C          64.4686   94.8678   -2.4932 C.ar    1  UNL1        0.0032
      4 C          63.0868   94.7676   -1.9179 C.ar    1  UNL1        0.0043
      5 C          61.9231   95.3635   -2.6533 C.ar    1  UNL1        0.0611
      6 C          62.1412   96.0595   -3.9639 C.ar    1  UNL1        0.1723
      7 C          60.5415   95.2632   -2.0780 C.3     1  UNL1        0.2194
      8 N          60.3235   94.5671   -0.7673 N.pl3   1  UNL1       -0.2807
      9 C          58.9419   94.4669   -0.1920 C.3     1  UNL1        0.1147
     10 C          61.4872   93.9713   -0.0319 C.ar    1  UNL1        0.0498
     11 C          62.8689   94.0715   -0.6072 C.ar    1  UNL1        0.0133
     12 C          64.0326   93.4756    0.1283 C.ar    1  UNL1        0.0012
     13 C          63.8146   92.7796    1.4390 C.ar    1  UNL1        0.0002
     14 C          62.4329   92.6793    2.0143 C.ar    1  UNL1        0.0044
     15 C          62.2149   91.9833    3.3250 C.ar    1  UNL1        0.0402
     16 C          60.8333   91.8830    3.9003 C.ar    1  UNL1        0.1764
     17 C          59.6696   92.4789    3.1649 C.ar    1  UNL1        0.1765
     18 C          59.8875   93.1749    1.8542 C.ar    1  UNL1        0.0414
     19 C          61.2693   93.2752    1.2789 C.ar    1  UNL1        0.0166
     20 O          58.4316   92.2257    3.9732 O.3     1  UNL1       -0.4346
     21 C          58.8303   91.4735    5.2082 C.3     1  UNL1        0.4294
     22 O          60.3145   91.2616    5.1631 O.3     1  UNL1       -0.4346
     23 C          64.2100   96.0779   -7.0435 C.3     1  UNL1        0.2526
     24 O          63.7407   96.8558   -5.8500 O.3     1  UNL1       -0.4684
     25 O          60.9775   96.6554   -4.6994 O.3     1  UNL1       -0.4686
     26 C          60.5708   96.1027   -6.0333 C.3     1  UNL1        0.2526
     27 O          59.3778   95.8591   -2.8133 O.3     1  UNL1       -0.3313
     28 C          58.3371   94.9655   -3.4204 C.3     1  UNL1        0.1764
@<TRIPOS>BOND
     1    23    24    1
     2    24     1    1
     3     1     2   ar
     4     2     3   ar
     5     3     4   ar
     6     4     5   ar
     7     5     6   ar
     8     6    25    1
     9    25    26    1
    10     5     7    1
    11     7    27    1
    12    27    28    1
    13     7     8    1
    14     8     9    1
    15     8    10    1
    16    10    11   ar
    17    11    12   ar
    18    12    13   ar
    19    13    14   ar
    20    14    15   ar
    21    15    16   ar
    22    16    17   ar
    23    17    18   ar
    24    18    19   ar
    25    17    20    1
    26    20    21    1
    27    21    22    1
    28     6     1   ar
    29    19    10   ar
    30    11     4    1
    31    19    14   ar
    32    22    16    1
