@<TRIPOS>MOLECULE
*****
 29 32 0 0 0
SMALL
GASTEIGER

@<TRIPOS>ATOM
      1 C          63.6138   86.1705   15.6590 C.ar    1  UNL1        0.2172
      2 N          64.2585   86.9254   14.5345 N.ar    1  UNL1       -0.2126
      3 C          64.3303   88.4229   14.5807 C.ar    1  UNL1        0.0994
      4 C          63.7574   89.1656   15.7512 C.ar    1  UNL1        0.0207
      5 C          63.1127   88.4107   16.8757 C.ar    1  UNL1        0.0994
      6 N          63.0409   86.9132   16.8296 N.ar    1  UNL1       -0.2126
      7 N          63.5419   84.6729   15.6129 N.pl3   1  UNL1       -0.2989
      8 H          64.2945   84.1335   15.9474 H       1  UNL1        0.1500
      9 C          62.3234   83.9972   15.0573 C.3     1  UNL1        0.1212
     10 C          62.9958   83.2327   12.6670 C.ar    1  UNL1        0.2224
     11 N          63.1419   82.1456   11.6438 N.ar    1  UNL1       -0.2104
     12 C          62.7619   80.7359   11.9879 C.ar    1  UNL1        0.1020
     13 C          62.2358   80.4133   13.3550 C.ar    1  UNL1        0.0206
     14 C          62.0896   81.5004   14.3781 C.ar    1  UNL1        0.0036
     15 C          62.4696   82.9101   14.0341 C.ar    1  UNL1        0.0507
     16 C          62.3895   85.5382   11.6340 C.3     1  UNL1        0.2542
     17 O          63.3758   84.6424   12.3229 O.3     1  UNL1       -0.4563
     18 C          63.8293   90.6632   15.7973 C.3     1  UNL1        0.0575
     19 C          64.8731   91.3889   15.0012 C.ar    1  UNL1        0.0044
     20 C          66.1282   92.0036   15.5459 C.ar    1  UNL1        0.0966
     21 N          66.8758   92.6218   14.4018 N.ar    1  UNL1       -0.2273
     22 C          66.0828   92.3892   13.1500 C.ar    1  UNL1        0.1402
     23 N          66.3278   92.7728   11.7208 N.ar    1  UNL1       -0.3377
     24 C          65.3350   92.3943   10.6620 C.ar    1  UNL1        0.0691
     25 C          64.0972   91.6323   11.0324 C.ar    1  UNL1       -0.0047
     26 C          63.1044   91.2539    9.9735 C.3     1  UNL1        0.0326
     27 C          63.8522   91.2488   12.4616 C.ar    1  UNL1       -0.0001
     28 C          64.8450   91.6272   13.5205 C.ar    1  UNL1        0.0315
     29 H          67.1402   93.2729   11.4777 H       1  UNL1        0.1674
@<TRIPOS>BOND
     1    16    17    1
     2    17    10    1
     3    10    11   ar
     4    11    12   ar
     5    12    13   ar
     6    13    14   ar
     7    14    15   ar
     8    15     9    1
     9     9     7    1
    10     7     1    1
    11     1     2   ar
    12     2     3   ar
    13     3     4   ar
    14     4    18    1
    15    18    19    1
    16    19    20   ar
    17    20    21   ar
    18    21    22   ar
    19    22    23   ar
    20    23    24   ar
    21    24    25   ar
    22    25    26    1
    23    25    27   ar
    24    27    28   ar
    25     4     5   ar
    26     5     6   ar
    27    15    10   ar
    28     6     1   ar
    29    28    19   ar
    30    28    22    1
    31     7     8    1
    32    23    29    1
@<TRIPOS>MOLECULE
*****
 29 32 0 0 0
SMALL
GASTEIGER

@<TRIPOS>ATOM
      1 C          63.9538   85.5636   15.6504 C.ar    1  UNL1        0.2172
      2 N          63.1406   86.1605   16.7605 N.ar    1  UNL1       -0.2126
      3 C          62.9778   87.6486   16.8544 C.ar    1  UNL1        0.0994
      4 C          63.6280   88.5399   15.8382 C.ar    1  UNL1        0.0207
      5 C          64.4412   87.9430   14.7280 C.ar    1  UNL1        0.0994
      6 N          64.6040   86.4549   14.6341 N.ar    1  UNL1       -0.2126
      7 N          64.1167   84.0754   15.5564 N.pl3   1  UNL1       -0.2989
      8 H          64.9049   83.6404   15.9548 H       1  UNL1        0.1500
      9 C          63.0787   83.2500   14.8554 C.3     1  UNL1        0.1212
     10 C          62.7821   81.4888   12.9685 C.ar    1  UNL1        0.2224
     11 N          63.0007   81.0567   11.5489 N.ar    1  UNL1       -0.2104
     12 C          63.7345   81.9537   10.5964 C.ar    1  UNL1        0.1020
     13 C          64.2497   83.2827   11.0637 C.ar    1  UNL1        0.0206
     14 C          64.0310   83.7148   12.4833 C.ar    1  UNL1        0.0036
     15 C          63.2973   82.8178   13.4358 C.ar    1  UNL1        0.0507
     16 C          60.5689   80.7497   14.1111 C.3     1  UNL1        0.2542
     17 O          62.0483   80.5919   13.9210 O.3     1  UNL1       -0.4563
     18 C          63.4652   90.0281   15.9321 C.3     1  UNL1        0.0575
     19 C          64.2644   90.9281   15.0370 C.ar    1  UNL1        0.0044
     20 C          65.3834   91.8303   15.4657 C.ar    1  UNL1        0.0966
     21 N          65.8955   92.5436   14.2496 N.ar    1  UNL1       -0.2273
     22 C          65.0930   92.0822   13.0693 C.ar    1  UNL1        0.1402
     23 N          65.1500   92.4423   11.6143 N.ar    1  UNL1       -0.3377
     24 C          64.1989   91.8039   10.6459 C.ar    1  UNL1        0.0691
     25 C          63.1908   90.8054   11.1325 C.ar    1  UNL1       -0.0047
     26 C          62.2397   90.1670   10.1641 C.3     1  UNL1        0.0326
     27 C          63.1338   90.4454   12.5875 C.ar    1  UNL1       -0.0001
     28 C          64.0849   91.0838   13.5559 C.ar    1  UNL1        0.0315
     29 H          65.8117   93.0976   11.2949 H       1  UNL1        0.1674
@<TRIPOS>BOND
     1    16    17    1
     2    17    10    1
     3    10    11   ar
     4    11    12   ar
     5    12    13   ar
     6    13    14   ar
     7    14    15   ar
     8    15     9    1
     9     9     7    1
    10     7     1    1
    11     1     2   ar
    12     2     3   ar
    13     3     4   ar
    14     4    18    1
    15    18    19    1
    16    19    20   ar
    17    20    21   ar
    18    21    22   ar
    19    22    23   ar
    20    23    24   ar
    21    24    25   ar
    22    25    26    1
    23    25    27   ar
    24    27    28   ar
    25     4     5   ar
    26     5     6   ar
    27    15    10   ar
    28     6     1   ar
    29    28    19   ar
    30    28    22    1
    31     7     8    1
    32    23    29    1
@<TRIPOS>MOLECULE
*****
 29 32 0 0 0
SMALL
GASTEIGER

@<TRIPOS>ATOM
      1 C          61.8463   89.2143   11.4664 C.ar    1  UNL1        0.2172
      2 N          62.7579   89.6217   12.5858 N.ar    1  UNL1       -0.2126
      3 C          63.7304   90.7467   12.3893 C.ar    1  UNL1        0.0994
      4 C          63.7913   91.4643   11.0735 C.ar    1  UNL1        0.0207
      5 C          62.8796   91.0569    9.9541 C.ar    1  UNL1        0.0994
      6 N          61.9072   89.9319   10.1507 N.ar    1  UNL1       -0.2126
      7 N          60.8738   88.0893   11.6629 N.pl3   1  UNL1       -0.2989
      8 H          60.4459   87.9559   12.5394 H       1  UNL1        0.1500
      9 C          60.5532   87.1674   10.5238 C.3     1  UNL1        0.1212
     10 C          62.2803   85.2979   11.0454 C.ar    1  UNL1        0.2224
     11 N          63.3004   84.3038   10.5750 N.ar    1  UNL1       -0.2104
     12 C          63.6136   84.1853    9.1129 C.ar    1  UNL1        0.1020
     13 C          62.9066   85.0608    8.1210 C.ar    1  UNL1        0.0206
     14 C          61.8865   86.0548    8.5914 C.ar    1  UNL1        0.0036
     15 C          61.5734   86.1734   10.0536 C.ar    1  UNL1        0.0507
     16 C          62.7263   84.5941   13.5062 C.3     1  UNL1        0.2542
     17 O          61.9672   85.4164   12.5075 O.3     1  UNL1       -0.4563
     18 C          64.7638   92.5894   10.8770 C.3     1  UNL1        0.0575
     19 C          66.2127   92.3957   11.2137 C.ar    1  UNL1        0.0044
     20 C          67.3268   92.1925   10.2302 C.ar    1  UNL1        0.0966
     21 N          68.6044   92.0425   11.0017 N.ar    1  UNL1       -0.2273
     22 C          68.2799   92.1529   12.4620 C.ar    1  UNL1        0.1402
     23 N          69.1394   92.0829   13.6893 N.ar    1  UNL1       -0.3377
     24 C          68.5206   92.2312   15.0476 C.ar    1  UNL1        0.0691
     25 C          67.0424   92.4495   15.1787 C.ar    1  UNL1       -0.0047
     26 C          66.4237   92.5978   16.5371 C.3     1  UNL1        0.0326
     27 C          66.1829   92.5195   13.9514 C.ar    1  UNL1       -0.0001
     28 C          66.8016   92.3712   12.5930 C.ar    1  UNL1        0.0315
     29 H          70.1096   91.9396   13.6033 H       1  UNL1        0.1674
@<TRIPOS>BOND
     1    16    17    1
     2    17    10    1
     3    10    11   ar
     4    11    12   ar
     5    12    13   ar
     6    13    14   ar
     7    14    15   ar
     8    15     9    1
     9     9     7    1
    10     7     1    1
    11     1     2   ar
    12     2     3   ar
    13     3     4   ar
    14     4    18    1
    15    18    19    1
    16    19    20   ar
    17    20    21   ar
    18    21    22   ar
    19    22    23   ar
    20    23    24   ar
    21    24    25   ar
    22    25    26    1
    23    25    27   ar
    24    27    28   ar
    25     4     5   ar
    26     5     6   ar
    27    15    10   ar
    28     6     1   ar
    29    28    19   ar
    30    28    22    1
    31     7     8    1
    32    23    29    1
@<TRIPOS>MOLECULE
*****
 29 32 0 0 0
SMALL
GASTEIGER

@<TRIPOS>ATOM
      1 C          63.8598   91.2370   11.8095 C.ar    1  UNL1        0.2172
      2 N          63.8923   90.0540   12.7310 N.ar    1  UNL1       -0.2126
      3 C          63.1074   88.8205   12.3958 C.ar    1  UNL1        0.0994
      4 C          62.2900   88.7701   11.1390 C.ar    1  UNL1        0.0207
      5 C          62.2576   89.9532   10.2175 C.ar    1  UNL1        0.0994
      6 N          63.0425   91.1866   10.5527 N.ar    1  UNL1       -0.2126
      7 N          64.6447   92.4706   12.1447 N.pl3   1  UNL1       -0.2989
      8 H          64.1764   93.2959   12.4068 H       1  UNL1        0.1500
      9 C          66.1432   92.4467   12.0805 C.3     1  UNL1        0.1212
     10 C          66.5347   94.2285   10.2307 C.ar    1  UNL1        0.2224
     11 N          67.2392   94.6726    8.9832 N.ar    1  UNL1       -0.2104
     12 C          68.2567   93.7791    8.3379 C.ar    1  UNL1        0.1020
     13 C          68.5697   92.4415    8.9402 C.ar    1  UNL1        0.0206
     14 C          67.8651   91.9974   10.1877 C.ar    1  UNL1        0.0036
     15 C          66.8476   92.8909   10.8330 C.ar    1  UNL1        0.0507
     16 C          65.8804   96.5305   11.2419 C.3     1  UNL1        0.2542
     17 O          65.5171   95.1220   10.8760 O.3     1  UNL1       -0.4563
     18 C          61.5051   87.5365   10.8038 C.3     1  UNL1        0.0575
     19 C          62.1838   86.3709   10.1474 C.ar    1  UNL1        0.0044
     20 C          62.3555   86.1675    8.6713 C.ar    1  UNL1        0.0966
     21 N          63.0879   84.8750    8.4636 N.ar    1  UNL1       -0.2273
     22 C          63.3688   84.2796    9.8114 C.ar    1  UNL1        0.1402
     23 N          64.0612   83.0151   10.2255 N.ar    1  UNL1       -0.3377
     24 C          64.1948   82.6751   11.6803 C.ar    1  UNL1        0.0691
     25 C          63.6361   83.5997   12.7210 C.ar    1  UNL1       -0.0047
     26 C          63.7698   83.2596   14.1759 C.3     1  UNL1        0.0326
     27 C          62.9437   84.8642   12.3069 C.ar    1  UNL1       -0.0001
     28 C          62.8101   85.2042   10.8521 C.ar    1  UNL1        0.0315
     29 H          64.4279   82.4083    9.5425 H       1  UNL1        0.1674
@<TRIPOS>BOND
     1    16    17    1
     2    17    10    1
     3    10    11   ar
     4    11    12   ar
     5    12    13   ar
     6    13    14   ar
     7    14    15   ar
     8    15     9    1
     9     9     7    1
    10     7     1    1
    11     1     2   ar
    12     2     3   ar
    13     3     4   ar
    14     4    18    1
    15    18    19    1
    16    19    20   ar
    17    20    21   ar
    18    21    22   ar
    19    22    23   ar
    20    23    24   ar
    21    24    25   ar
    22    25    26    1
    23    25    27   ar
    24    27    28   ar
    25     4     5   ar
    26     5     6   ar
    27    15    10   ar
    28     6     1   ar
    29    28    19   ar
    30    28    22    1
    31     7     8    1
    32    23    29    1
@<TRIPOS>MOLECULE
*****
 29 32 0 0 0
SMALL
GASTEIGER

@<TRIPOS>ATOM
      1 C          62.3347   87.2788   11.5141 C.ar    1  UNL1        0.2172
      2 N          63.0982   87.9478   12.6184 N.ar    1  UNL1       -0.2126
      3 C          63.5034   89.3859   12.4857 C.ar    1  UNL1        0.0994
      4 C          63.1453   90.1550   11.2487 C.ar    1  UNL1        0.0207
      5 C          62.3818   89.4860   10.1444 C.ar    1  UNL1        0.0994
      6 N          61.9766   88.0480   10.2771 N.ar    1  UNL1       -0.2126
      7 N          61.9294   85.8407   11.6467 N.pl3   1  UNL1       -0.2989
      8 H          60.9870   85.6081   11.8111 H       1  UNL1        0.1500
      9 C          62.9599   84.7571   11.5288 C.3     1  UNL1        0.1212
     10 C          62.6996   83.6000   13.8404 C.ar    1  UNL1        0.2224
     11 N          62.5714   82.3507   14.6606 N.ar    1  UNL1       -0.2104
     12 C          62.5753   81.0092   13.9895 C.ar    1  UNL1        0.1020
     13 C          62.7074   80.9170   12.4982 C.ar    1  UNL1        0.0206
     14 C          62.8356   82.1663   11.6780 C.ar    1  UNL1        0.0036
     15 C          62.8317   83.5078   12.3491 C.ar    1  UNL1        0.0507
     16 C          63.9063   85.4067   15.2652 C.3     1  UNL1        0.2542
     17 O          62.6957   84.9415   14.5115 O.3     1  UNL1       -0.4563
     18 C          63.5506   91.5932   11.1161 C.3     1  UNL1        0.0575
     19 C          64.9514   92.0116   11.4516 C.ar    1  UNL1        0.0044
     20 C          66.0428   92.3085   10.4663 C.ar    1  UNL1        0.0966
     21 N          67.2727   92.6870   11.2370 N.ar    1  UNL1       -0.2273
     22 C          66.9415   92.6239   12.6986 C.ar    1  UNL1        0.1402
     23 N          67.7609   92.8927   13.9259 N.ar    1  UNL1       -0.3377
     24 C          67.1457   92.7440   15.2858 C.ar    1  UNL1        0.0691
     25 C          65.7110   92.3266   15.4184 C.ar    1  UNL1       -0.0047
     26 C          65.0958   92.1779   16.7784 C.3     1  UNL1        0.0326
     27 C          64.8916   92.0579   14.1911 C.ar    1  UNL1       -0.0001
     28 C          65.5069   92.2065   12.8312 C.ar    1  UNL1        0.0315
     29 H          68.7025   93.1667   13.8389 H       1  UNL1        0.1674
@<TRIPOS>BOND
     1    16    17    1
     2    17    10    1
     3    10    11   ar
     4    11    12   ar
     5    12    13   ar
     6    13    14   ar
     7    14    15   ar
     8    15     9    1
     9     9     7    1
    10     7     1    1
    11     1     2   ar
    12     2     3   ar
    13     3     4   ar
    14     4    18    1
    15    18    19    1
    16    19    20   ar
    17    20    21   ar
    18    21    22   ar
    19    22    23   ar
    20    23    24   ar
    21    24    25   ar
    22    25    26    1
    23    25    27   ar
    24    27    28   ar
    25     4     5   ar
    26     5     6   ar
    27    15    10   ar
    28     6     1   ar
    29    28    19   ar
    30    28    22    1
    31     7     8    1
    32    23    29    1
@<TRIPOS>MOLECULE
*****
 29 32 0 0 0
SMALL
GASTEIGER

@<TRIPOS>ATOM
      1 C          61.7519   89.1574   11.2429 C.ar    1  UNL1        0.2172
      2 N          61.8611   89.9014    9.9450 N.ar    1  UNL1       -0.2126
      3 C          62.8263   91.0420    9.8133 C.ar    1  UNL1        0.0994
      4 C          63.6823   91.4386   10.9795 C.ar    1  UNL1        0.0207
      5 C          63.5731   90.6946   12.2774 C.ar    1  UNL1        0.0994
      6 N          62.6079   89.5540   12.4091 N.ar    1  UNL1       -0.2126
      7 N          60.7867   88.0168   11.3747 N.pl3   1  UNL1       -0.2989
      8 H          59.8331   88.1957   11.5415 H       1  UNL1        0.1500
      9 C          61.2744   86.6035   11.2523 C.3     1  UNL1        0.1212
     10 C          60.7419   86.3218    8.7250 C.ar    1  UNL1        0.2224
     11 N          61.0932   85.7636    7.3778 N.ar    1  UNL1       -0.2104
     12 C          62.3282   84.9289    7.2107 C.ar    1  UNL1        0.1020
     13 C          63.2120   84.6525    8.3907 C.ar    1  UNL1        0.0206
     14 C          62.8607   85.2107    9.7379 C.ar    1  UNL1        0.0036
     15 C          61.6256   86.0454    9.9051 C.ar    1  UNL1        0.0507
     16 C          59.1469   88.1794    7.8559 C.3     1  UNL1        0.2542
     17 O          59.5068   87.1565    8.8922 O.3     1  UNL1       -0.4563
     18 C          64.6475   92.5793   10.8477 C.3     1  UNL1        0.0575
     19 C          66.0956   92.3791   11.1841 C.ar    1  UNL1        0.0044
     20 C          67.2091   92.1740   10.2002 C.ar    1  UNL1        0.0966
     21 N          68.4860   92.0170   10.9715 N.ar    1  UNL1       -0.2273
     22 C          68.1617   92.1251   12.4320 C.ar    1  UNL1        0.1402
     23 N          69.0207   92.0486   13.6592 N.ar    1  UNL1       -0.3377
     24 C          68.4024   92.1959   15.0178 C.ar    1  UNL1        0.0691
     25 C          66.9250   92.4196   15.1492 C.ar    1  UNL1       -0.0047
     26 C          66.3067   92.5669   16.5080 C.3     1  UNL1        0.0326
     27 C          66.0659   92.4961   13.9220 C.ar    1  UNL1       -0.0001
     28 C          66.6843   92.3488   12.5634 C.ar    1  UNL1        0.0315
     29 H          69.9904   91.9017   13.5730 H       1  UNL1        0.1674
@<TRIPOS>BOND
     1    16    17    1
     2    17    10    1
     3    10    11   ar
     4    11    12   ar
     5    12    13   ar
     6    13    14   ar
     7    14    15   ar
     8    15     9    1
     9     9     7    1
    10     7     1    1
    11     1     2   ar
    12     2     3   ar
    13     3     4   ar
    14     4    18    1
    15    18    19    1
    16    19    20   ar
    17    20    21   ar
    18    21    22   ar
    19    22    23   ar
    20    23    24   ar
    21    24    25   ar
    22    25    26    1
    23    25    27   ar
    24    27    28   ar
    25     4     5   ar
    26     5     6   ar
    27    15    10   ar
    28     6     1   ar
    29    28    19   ar
    30    28    22    1
    31     7     8    1
    32    23    29    1
@<TRIPOS>MOLECULE
*****
 29 32 0 0 0
SMALL
GASTEIGER

@<TRIPOS>ATOM
      1 C          60.9688   86.9247    9.0314 C.ar    1  UNL1        0.2172
      2 N          61.9167   86.4001    7.9940 N.ar    1  UNL1       -0.2126
      3 C          62.8666   85.2915    8.3382 C.ar    1  UNL1        0.0994
      4 C          62.8687   84.7074    9.7198 C.ar    1  UNL1        0.0207
      5 C          61.9207   85.2319   10.7572 C.ar    1  UNL1        0.0994
      6 N          60.9708   86.3406   10.4130 N.ar    1  UNL1       -0.2126
      7 N          60.0188   88.0333    8.6873 N.pl3   1  UNL1       -0.2989
      8 H          59.1650   87.8294    8.2416 H       1  UNL1        0.1500
      9 C          60.3697   89.4528    9.0221 C.3     1  UNL1        0.1212
     10 C          60.7862   89.4002   11.5861 C.ar    1  UNL1        0.2224
     11 N          61.6633   89.6977   12.7660 N.ar    1  UNL1       -0.2104
     12 C          63.0009   90.3451   12.5619 C.ar    1  UNL1        0.1020
     13 C          63.4614   90.6951   11.1779 C.ar    1  UNL1        0.0206
     14 C          62.5843   90.3977    9.9980 C.ar    1  UNL1        0.0036
     15 C          61.2467   89.7502   10.2021 C.ar    1  UNL1        0.0507
     16 C          58.6380   89.0744   13.0105 C.3     1  UNL1        0.2542
     17 O          59.4486   88.7528   11.7902 O.3     1  UNL1       -0.4563
     18 C          63.8187   83.5987   10.0640 C.3     1  UNL1        0.0575
     19 C          63.6011   82.7823   11.3034 C.ar    1  UNL1        0.0044
     20 C          63.2337   81.3286   11.3484 C.ar    1  UNL1        0.0966
     21 N          63.1182   80.9242   12.7882 N.ar    1  UNL1       -0.2273
     22 C          63.4142   82.1278   13.6331 C.ar    1  UNL1        0.1402
     23 N          63.4505   82.3265   15.1194 N.ar    1  UNL1       -0.3377
     24 C          63.7853   83.6735   15.6880 C.ar    1  UNL1        0.0691
     25 C          64.0837   84.8219   14.7703 C.ar    1  UNL1       -0.0047
     26 C          64.4185   86.1690   15.3390 C.3     1  UNL1        0.0326
     27 C          64.0474   84.6232   13.2840 C.ar    1  UNL1       -0.0001
     28 C          63.7126   83.2762   12.7154 C.ar    1  UNL1        0.0315
     29 H          63.2547   81.5727   15.7217 H       1  UNL1        0.1674
@<TRIPOS>BOND
     1    16    17    1
     2    17    10    1
     3    10    11   ar
     4    11    12   ar
     5    12    13   ar
     6    13    14   ar
     7    14    15   ar
     8    15     9    1
     9     9     7    1
    10     7     1    1
    11     1     2   ar
    12     2     3   ar
    13     3     4   ar
    14     4    18    1
    15    18    19    1
    16    19    20   ar
    17    20    21   ar
    18    21    22   ar
    19    22    23   ar
    20    23    24   ar
    21    24    25   ar
    22    25    26    1
    23    25    27   ar
    24    27    28   ar
    25     4     5   ar
    26     5     6   ar
    27    15    10   ar
    28     6     1   ar
    29    28    19   ar
    30    28    22    1
    31     7     8    1
    32    23    29    1
@<TRIPOS>MOLECULE
*****
 29 32 0 0 0
SMALL
GASTEIGER

@<TRIPOS>ATOM
      1 C          63.7320   90.8127   12.0351 C.ar    1  UNL1        0.2172
      2 N          62.9675   90.8832   10.7465 N.ar    1  UNL1       -0.2126
      3 C          62.2132   89.6833   10.2554 C.ar    1  UNL1        0.0994
      4 C          62.2234   88.4129   11.0529 C.ar    1  UNL1        0.0207
      5 C          62.9879   88.3424   12.3416 C.ar    1  UNL1        0.0994
      6 N          63.7422   89.5423   12.8326 N.ar    1  UNL1       -0.2126
      7 N          64.4864   92.0126   12.5263 N.pl3   1  UNL1       -0.2989
      8 H          63.9979   92.8186   12.8107 H       1  UNL1        0.1500
      9 C          65.9850   91.9845   12.5840 C.3     1  UNL1        0.1212
     10 C          65.9207   92.1962   15.1727 C.ar    1  UNL1        0.2224
     11 N          66.6258   92.4395   16.4740 N.ar    1  UNL1       -0.2104
     12 C          68.1004   92.7142   16.4882 C.ar    1  UNL1        0.1020
     13 C          68.8698   92.7457   15.2009 C.ar    1  UNL1        0.0206
     14 C          68.1647   92.5024   13.8996 C.ar    1  UNL1        0.0036
     15 C          66.6901   92.2277   13.8854 C.ar    1  UNL1        0.0507
     16 C          63.8313   91.0710   16.2302 C.3     1  UNL1        0.2542
     17 O          64.4461   91.9215   15.1586 O.3     1  UNL1       -0.4563
     18 C          61.4690   87.2130   10.5618 C.3     1  UNL1        0.0575
     19 C          62.2127   86.0384    9.9985 C.ar    1  UNL1        0.0044
     20 C          62.4880   85.7833    8.5462 C.ar    1  UNL1        0.0966
     21 N          63.2571   84.5000    8.4388 N.ar    1  UNL1       -0.2273
     22 C          63.4572   83.9620    9.8246 C.ar    1  UNL1        0.1402
     23 N          64.1437   82.7292   10.3333 N.ar    1  UNL1       -0.3377
     24 C          64.1848   82.4472   11.8060 C.ar    1  UNL1        0.0691
     25 C          63.5393   83.3980   12.7699 C.ar    1  UNL1       -0.0047
     26 C          63.5803   83.1160   14.2427 C.3     1  UNL1        0.0326
     27 C          62.8527   84.6308   12.2612 C.ar    1  UNL1       -0.0001
     28 C          62.8117   84.9128   10.7886 C.ar    1  UNL1        0.0315
     29 H          64.5674   82.1051    9.7006 H       1  UNL1        0.1674
@<TRIPOS>BOND
     1    16    17    1
     2    17    10    1
     3    10    11   ar
     4    11    12   ar
     5    12    13   ar
     6    13    14   ar
     7    14    15   ar
     8    15     9    1
     9     9     7    1
    10     7     1    1
    11     1     2   ar
    12     2     3   ar
    13     3     4   ar
    14     4    18    1
    15    18    19    1
    16    19    20   ar
    17    20    21   ar
    18    21    22   ar
    19    22    23   ar
    20    23    24   ar
    21    24    25   ar
    22    25    26    1
    23    25    27   ar
    24    27    28   ar
    25     4     5   ar
    26     5     6   ar
    27    15    10   ar
    28     6     1   ar
    29    28    19   ar
    30    28    22    1
    31     7     8    1
    32    23    29    1
@<TRIPOS>MOLECULE
*****
 29 32 0 0 0
SMALL
GASTEIGER

@<TRIPOS>ATOM
      1 C          62.2029   87.4593   11.1971 C.ar    1  UNL1        0.2172
      2 N          62.0175   88.2490    9.9353 N.ar    1  UNL1       -0.2126
      3 C          62.4799   89.6743    9.8679 C.ar    1  UNL1        0.0994
      4 C          63.1276   90.3100   11.0622 C.ar    1  UNL1        0.0207
      5 C          63.3131   89.5204   12.3239 C.ar    1  UNL1        0.0994
      6 N          62.8507   88.0950   12.3914 N.ar    1  UNL1       -0.2126
      7 N          61.7406   86.0340   11.2646 N.pl3   1  UNL1       -0.2989
      8 H          60.7783   85.8272   11.2447 H       1  UNL1        0.1500
      9 C          62.7444   84.9236   11.3625 C.3     1  UNL1        0.1212
     10 C          63.1294   82.9960   13.0614 C.ar    1  UNL1        0.2224
     11 N          63.5966   82.5238   14.4062 N.ar    1  UNL1       -0.2104
     12 C          64.1461   83.5069   15.3971 C.ar    1  UNL1        0.1020
     13 C          64.2283   84.9622   15.0430 C.ar    1  UNL1        0.0206
     14 C          63.7611   85.4344   13.6981 C.ar    1  UNL1        0.0036
     15 C          63.2116   84.4513   12.7073 C.ar    1  UNL1        0.0507
     16 C          62.6512   80.5420   12.3551 C.3     1  UNL1        0.2542
     17 O          62.5800   82.0130   12.0706 O.3     1  UNL1       -0.4563
     18 C          63.5900   91.7355   10.9946 C.3     1  UNL1        0.0575
     19 C          65.0007   92.0848   11.3662 C.ar    1  UNL1        0.0044
     20 C          66.1236   92.3545   10.4090 C.ar    1  UNL1        0.0966
     21 N          67.3529   92.6620   11.2115 N.ar    1  UNL1       -0.2273
     22 C          66.9898   92.5824   12.6648 C.ar    1  UNL1        0.1402
     23 N          67.7951   92.7887   13.9133 N.ar    1  UNL1       -0.3377
     24 C          67.1466   92.6382   15.2574 C.ar    1  UNL1        0.0691
     25 C          65.6928   92.2815   15.3530 C.ar    1  UNL1       -0.0047
     26 C          65.0443   92.1310   16.6973 C.3     1  UNL1        0.0326
     27 C          64.8875   92.0752   14.1045 C.ar    1  UNL1       -0.0001
     28 C          65.5360   92.2256   12.7604 C.ar    1  UNL1        0.0315
     29 H          68.7493   93.0229   13.8505 H       1  UNL1        0.1674
@<TRIPOS>BOND
     1    16    17    1
     2    17    10    1
     3    10    11   ar
     4    11    12   ar
     5    12    13   ar
     6    13    14   ar
     7    14    15   ar
     8    15     9    1
     9     9     7    1
    10     7     1    1
    11     1     2   ar
    12     2     3   ar
    13     3     4   ar
    14     4    18    1
    15    18    19    1
    16    19    20   ar
    17    20    21   ar
    18    21    22   ar
    19    22    23   ar
    20    23    24   ar
    21    24    25   ar
    22    25    26    1
    23    25    27   ar
    24    27    28   ar
    25     4     5   ar
    26     5     6   ar
    27    15    10   ar
    28     6     1   ar
    29    28    19   ar
    30    28    22    1
    31     7     8    1
    32    23    29    1
