@<TRIPOS>MOLECULE
*****
 30 33 0 0 0
SMALL
GASTEIGER

@<TRIPOS>ATOM
      1 N          63.8936   88.5830   14.8706 N.3     1  UNL1       -0.2641
      2 C          64.2294   89.7315   13.9661 C.3     1  UNL1        0.0981
      3 C          65.3095   90.6985   14.3512 C.3     1  UNL1        0.0224
      4 C          65.6454   91.8470   13.4467 C.3     1  UNL1        0.0065
      5 C          64.9012   92.0285   12.1571 C.3     1  UNL1        0.0277
      6 C          63.8211   91.0615   11.7720 C.ar    1  UNL1       -0.0073
      7 C          63.0768   91.2430   10.4823 C.ar    1  UNL1       -0.0015
      8 C          61.9968   90.2760   10.0972 C.ar    1  UNL1        0.0203
      9 C          61.6609   89.1275   11.0017 C.ar    1  UNL1        0.0985
     10 N          62.4051   88.9460   12.2913 N.ar    1  UNL1       -0.2471
     11 C          63.4852   89.9130   12.6765 C.ar    1  UNL1        0.0695
     12 C          62.7747   88.7110   15.8614 C.3     1  UNL1        0.0989
     13 C          62.8145   87.2135   17.9842 C.2     1  UNL1       -0.0125
     14 C          63.0474   88.5414   17.3267 C.2     1  UNL1       -0.0120
     15 N          60.8583   85.9778   16.8024 N.3     1  UNL1       -0.3175
     16 C          62.3089   86.0551   17.1765 C.3     1  UNL1        0.0916
     17 H          60.6922   85.1313   16.2581 H       1  UNL1        0.1192
     18 H          60.6068   86.7948   16.2458 H       1  UNL1        0.1192
     19 C          64.6765   87.3065   14.7843 C.3     1  UNL1        0.0888
     20 C          64.1059   86.1242   14.0586 C.3     1  UNL1        0.0748
     21 C          64.4143   84.7342   14.5305 C.3     1  UNL1        0.0432
     22 C          63.8437   83.5519   13.8047 C.ar    1  UNL1       -0.0234
     23 C          64.1521   82.1618   14.2766 C.ar    1  UNL1       -0.0045
     24 C          63.5814   80.9796   13.5509 C.ar    1  UNL1       -0.0003
     25 C          62.7024   81.1874   12.3533 C.ar    1  UNL1       -0.0003
     26 C          62.3941   82.5774   11.8815 C.ar    1  UNL1       -0.0032
     27 C          62.9647   83.7597   12.6072 C.ar    1  UNL1       -0.0103
     28 C          62.6563   85.1498   12.1353 C.3     1  UNL1        0.0953
     29 N          63.2269   86.3320   12.8610 N.3     1  UNL1       -0.2934
     30 H          62.4363   86.8972   13.1706 H       1  UNL1        0.1236
@<TRIPOS>BOND
     1    15    16    1
     2    16    13    1
     3    13    14    2
     4    14    12    1
     5    12     1    1
     6     1    19    1
     7    20    19    1
     8    20    21    1
     9    21    22    1
    10    22    23   ar
    11    23    24   ar
    12    24    25   ar
    13    25    26   ar
    14    26    27   ar
    15    27    28    1
    16    28    29    1
    17     2     1    1
    18     2     3    1
    19     3     4    1
    20     4     5    1
    21     5     6    1
    22     6     7   ar
    23     7     8   ar
    24     8     9   ar
    25     9    10   ar
    26    10    11   ar
    27    29    20    1
    28    11     2    1
    29    27    22   ar
    30    11     6   ar
    31    15    17    1
    32    15    18    1
    33    29    30    1
@<TRIPOS>MOLECULE
*****
 30 33 0 0 0
SMALL
GASTEIGER

@<TRIPOS>ATOM
      1 N          61.5124   87.5984   11.1352 N.3     1  UNL1       -0.2641
      2 C          62.1968   86.3963   10.5549 C.3     1  UNL1        0.0981
      3 C          62.5054   86.3443    9.0880 C.3     1  UNL1        0.0224
      4 C          63.1898   85.1422    8.5077 C.3     1  UNL1        0.0065
      5 C          63.5656   83.9923    9.3944 C.3     1  UNL1        0.0277
      6 C          63.2570   84.0443   10.8614 C.ar    1  UNL1       -0.0073
      7 C          63.6328   82.8943   11.7482 C.ar    1  UNL1       -0.0015
      8 C          63.3242   82.9464   13.2151 C.ar    1  UNL1        0.0203
      9 C          62.6398   84.1484   13.7954 C.ar    1  UNL1        0.0985
     10 N          62.2640   85.2984   12.9087 N.ar    1  UNL1       -0.2471
     11 C          62.5726   85.2464   11.4416 C.ar    1  UNL1        0.0695
     12 C          60.1592   88.0062   10.6330 C.3     1  UNL1        0.0989
     13 C          59.7624   88.7343    8.1708 C.2     1  UNL1       -0.0125
     14 C          60.0367   89.0890    9.6022 C.2     1  UNL1       -0.0120
     15 N          58.2606   86.6445    7.8140 N.3     1  UNL1       -0.3175
     16 C          59.6106   87.2968    7.7701 C.3     1  UNL1        0.0916
     17 H          58.3420   85.6739    7.5111 H       1  UNL1        0.1192
     18 H          57.6223   87.1420    7.1932 H       1  UNL1        0.1192
     19 C          62.1813   88.3926   12.2176 C.3     1  UNL1        0.0888
     20 C          62.9743   89.6172   11.8685 C.3     1  UNL1        0.0748
     21 C          63.8746   90.2445   12.8911 C.3     1  UNL1        0.0432
     22 C          64.6675   91.4690   12.5420 C.ar    1  UNL1       -0.0234
     23 C          65.5679   92.0963   13.5646 C.ar    1  UNL1       -0.0045
     24 C          66.3607   93.3208   13.2154 C.ar    1  UNL1       -0.0003
     25 C          66.2532   93.9180   11.8437 C.ar    1  UNL1       -0.0003
     26 C          65.3529   93.2907   10.8210 C.ar    1  UNL1       -0.0032
     27 C          64.5600   92.0662   11.1702 C.ar    1  UNL1       -0.0103
     28 C          63.6596   91.4389   10.1475 C.3     1  UNL1        0.0953
     29 N          62.8667   90.2144   10.4967 N.3     1  UNL1       -0.2934
     30 H          63.1421   89.4872    9.8366 H       1  UNL1        0.1236
@<TRIPOS>BOND
     1    15    16    1
     2    16    13    1
     3    13    14    2
     4    14    12    1
     5    12     1    1
     6     1    19    1
     7    20    19    1
     8    20    21    1
     9    21    22    1
    10    22    23   ar
    11    23    24   ar
    12    24    25   ar
    13    25    26   ar
    14    26    27   ar
    15    27    28    1
    16    28    29    1
    17     2     1    1
    18     2     3    1
    19     3     4    1
    20     4     5    1
    21     5     6    1
    22     6     7   ar
    23     7     8   ar
    24     8     9   ar
    25     9    10   ar
    26    10    11   ar
    27    29    20    1
    28    11     2    1
    29    27    22   ar
    30    11     6   ar
    31    15    17    1
    32    15    18    1
    33    29    30    1
@<TRIPOS>MOLECULE
*****
 30 33 0 0 0
SMALL
GASTEIGER

@<TRIPOS>ATOM
      1 N          61.9809   87.6605   10.8981 N.3     1  UNL1       -0.2641
      2 C          62.6235   89.0062   11.0594 C.3     1  UNL1        0.0981
      3 C          62.5186   90.0238    9.9625 C.3     1  UNL1        0.0224
      4 C          63.1612   91.3696   10.1238 C.3     1  UNL1        0.0065
      5 C          63.9088   91.6977   11.3821 C.3     1  UNL1        0.0277
      6 C          64.0138   90.6800   12.4791 C.ar    1  UNL1       -0.0073
      7 C          64.7615   91.0081   13.7374 C.ar    1  UNL1       -0.0015
      8 C          64.8665   89.9905   14.8344 C.ar    1  UNL1        0.0203
      9 C          64.2238   88.6447   14.6731 C.ar    1  UNL1        0.0985
     10 N          63.4762   88.3166   13.4148 N.ar    1  UNL1       -0.2471
     11 C          63.3712   89.3343   12.3177 C.ar    1  UNL1        0.0695
     12 C          60.4891   87.5272   10.9793 C.3     1  UNL1        0.0989
     13 C          59.5503   87.8291    8.5756 C.2     1  UNL1       -0.0125
     14 C          59.6161   88.2664   10.0090 C.2     1  UNL1       -0.0120
     15 N          59.7071   85.5669    7.3076 N.3     1  UNL1       -0.3175
     16 C          60.3575   86.6527    8.1126 C.3     1  UNL1        0.0916
     17 H          60.3980   84.8518    7.0803 H       1  UNL1        0.1192
     18 H          59.3304   85.9618    6.4459 H       1  UNL1        0.1192
     19 C          62.8301   86.4481   10.6555 C.3     1  UNL1        0.0888
     20 C          62.7369   85.2700   11.5795 C.3     1  UNL1        0.0748
     21 C          62.8307   83.8772   11.0308 C.3     1  UNL1        0.0432
     22 C          62.7376   82.6992   11.9548 C.ar    1  UNL1       -0.0234
     23 C          62.8314   81.3064   11.4061 C.ar    1  UNL1       -0.0045
     24 C          62.7383   80.1284   12.3301 C.ar    1  UNL1       -0.0003
     25 C          62.5513   80.3434   13.8028 C.ar    1  UNL1       -0.0003
     26 C          62.4576   81.7362   14.3515 C.ar    1  UNL1       -0.0032
     27 C          62.5507   82.9141   13.4275 C.ar    1  UNL1       -0.0103
     28 C          62.4569   84.3071   13.9762 C.3     1  UNL1        0.0953
     29 N          62.5500   85.4850   13.0522 N.3     1  UNL1       -0.2934
     30 H          63.3395   86.0470   13.3703 H       1  UNL1        0.1236
@<TRIPOS>BOND
     1    15    16    1
     2    16    13    1
     3    13    14    2
     4    14    12    1
     5    12     1    1
     6     1    19    1
     7    20    19    1
     8    20    21    1
     9    21    22    1
    10    22    23   ar
    11    23    24   ar
    12    24    25   ar
    13    25    26   ar
    14    26    27   ar
    15    27    28    1
    16    28    29    1
    17     2     1    1
    18     2     3    1
    19     3     4    1
    20     4     5    1
    21     5     6    1
    22     6     7   ar
    23     7     8   ar
    24     8     9   ar
    25     9    10   ar
    26    10    11   ar
    27    29    20    1
    28    11     2    1
    29    27    22   ar
    30    11     6   ar
    31    15    17    1
    32    15    18    1
    33    29    30    1
@<TRIPOS>MOLECULE
*****
 30 33 0 0 0
SMALL
GASTEIGER

@<TRIPOS>ATOM
      1 N          63.3876   88.8232   13.6116 N.3     1  UNL1       -0.2641
      2 C          62.9494   89.1376   12.2119 C.3     1  UNL1        0.0981
      3 C          63.0798   90.5344   11.6810 C.3     1  UNL1        0.0224
      4 C          62.6416   90.8488   10.2813 C.3     1  UNL1        0.0065
      5 C          62.0730   89.7663    9.4125 C.3     1  UNL1        0.0277
      6 C          61.9426   88.3695    9.9433 C.ar    1  UNL1       -0.0073
      7 C          61.3739   87.2870    9.0745 C.ar    1  UNL1       -0.0015
      8 C          61.2435   85.8902    9.6053 C.ar    1  UNL1        0.0203
      9 C          61.6817   85.5758   11.0050 C.ar    1  UNL1        0.0985
     10 N          62.2503   86.6582   11.8739 N.ar    1  UNL1       -0.2471
     11 C          62.3808   88.0551   11.3430 C.ar    1  UNL1        0.0695
     12 C          64.0319   87.5036   13.9172 C.3     1  UNL1        0.0989
     13 C          64.1123   85.6264   15.7116 C.2     1  UNL1       -0.0125
     14 C          64.2257   87.0756   15.3418 C.2     1  UNL1       -0.0120
     15 N          63.7264   83.1519   15.0202 N.3     1  UNL1       -0.3175
     16 C          63.8050   84.6050   14.6568 C.3     1  UNL1        0.0916
     17 H          63.5103   82.6043   14.1873 H       1  UNL1        0.1192
     18 H          62.9940   83.0147   15.7168 H       1  UNL1        0.1192
     19 C          63.1815   89.8284   14.7056 C.3     1  UNL1        0.0888
     20 C          64.3020   90.7418   15.1058 C.3     1  UNL1        0.0748
     21 C          65.5893   90.7316   14.3359 C.3     1  UNL1        0.0432
     22 C          66.7099   91.6450   14.7361 C.ar    1  UNL1       -0.0234
     23 C          67.9971   91.6349   13.9661 C.ar    1  UNL1       -0.0045
     24 C          69.1176   92.5483   14.3664 C.ar    1  UNL1       -0.0003
     25 C          68.9508   93.4718   15.5365 C.ar    1  UNL1       -0.0003
     26 C          67.6636   93.4819   16.3065 C.ar    1  UNL1       -0.0032
     27 C          66.5431   92.5686   15.9063 C.ar    1  UNL1       -0.0103
     28 C          65.2558   92.5787   16.6762 C.3     1  UNL1        0.0953
     29 N          64.1353   91.6653   16.2760 N.3     1  UNL1       -0.2934
     30 H          63.3311   92.2582   16.0709 H       1  UNL1        0.1236
@<TRIPOS>BOND
     1    15    16    1
     2    16    13    1
     3    13    14    2
     4    14    12    1
     5    12     1    1
     6     1    19    1
     7    20    19    1
     8    20    21    1
     9    21    22    1
    10    22    23   ar
    11    23    24   ar
    12    24    25   ar
    13    25    26   ar
    14    26    27   ar
    15    27    28    1
    16    28    29    1
    17     2     1    1
    18     2     3    1
    19     3     4    1
    20     4     5    1
    21     5     6    1
    22     6     7   ar
    23     7     8   ar
    24     8     9   ar
    25     9    10   ar
    26    10    11   ar
    27    29    20    1
    28    11     2    1
    29    27    22   ar
    30    11     6   ar
    31    15    17    1
    32    15    18    1
    33    29    30    1
@<TRIPOS>MOLECULE
*****
 30 33 0 0 0
SMALL
GASTEIGER

@<TRIPOS>ATOM
      1 N          63.9502   89.9909   13.5911 N.3     1  UNL1       -0.2641
      2 C          64.8334   91.1674   13.8837 C.3     1  UNL1        0.0981
      3 C          65.3463   91.3926   15.2751 C.3     1  UNL1        0.0224
      4 C          66.2295   92.5692   15.5677 C.3     1  UNL1        0.0065
      5 C          66.5998   93.5206   14.4688 C.3     1  UNL1        0.0277
      6 C          66.0869   93.2955   13.0774 C.ar    1  UNL1       -0.0073
      7 C          66.4572   94.2470   11.9784 C.ar    1  UNL1       -0.0015
      8 C          65.9443   94.0219   10.5870 C.ar    1  UNL1        0.0203
      9 C          65.0611   92.8453   10.2944 C.ar    1  UNL1        0.0985
     10 N          64.6908   91.8938   11.3933 N.ar    1  UNL1       -0.2471
     11 C          65.2037   92.1189   12.7848 C.ar    1  UNL1        0.0695
     12 C          64.3685   88.6148   14.0170 C.3     1  UNL1        0.0989
     13 C          63.9541   86.6101   15.6169 C.2     1  UNL1       -0.0125
     14 C          63.9573   88.0879   15.3600 C.2     1  UNL1       -0.0120
     15 N          65.1028   84.4010   14.8751 N.3     1  UNL1       -0.3175
     16 C          64.3621   85.6592   14.5310 C.3     1  UNL1        0.0916
     17 H          65.2985   83.8775   14.0218 H       1  UNL1        0.1192
     18 H          64.5329   83.8312   15.5004 H       1  UNL1        0.1192
     19 C          62.6488   90.1903   12.8726 C.3     1  UNL1        0.0888
     20 C          62.1868   89.1812   11.8634 C.3     1  UNL1        0.0748
     21 C          61.3014   89.6057   10.7295 C.3     1  UNL1        0.0432
     22 C          60.8394   88.5966    9.7203 C.ar    1  UNL1       -0.0234
     23 C          59.9540   89.0210    8.5864 C.ar    1  UNL1       -0.0045
     24 C          59.4921   88.0119    7.5773 C.ar    1  UNL1       -0.0003
     25 C          59.9157   86.5784    7.7020 C.ar    1  UNL1       -0.0003
     26 C          60.8012   86.1539    8.8359 C.ar    1  UNL1       -0.0032
     27 C          61.2630   87.1630    9.8450 C.ar    1  UNL1       -0.0103
     28 C          62.1486   86.7386   10.9790 C.3     1  UNL1        0.0953
     29 N          62.6104   87.7477   11.9881 N.3     1  UNL1       -0.2934
     30 H          63.6302   87.7392   11.9676 H       1  UNL1        0.1236
@<TRIPOS>BOND
     1    15    16    1
     2    16    13    1
     3    13    14    2
     4    14    12    1
     5    12     1    1
     6     1    19    1
     7    20    19    1
     8    20    21    1
     9    21    22    1
    10    22    23   ar
    11    23    24   ar
    12    24    25   ar
    13    25    26   ar
    14    26    27   ar
    15    27    28    1
    16    28    29    1
    17     2     1    1
    18     2     3    1
    19     3     4    1
    20     4     5    1
    21     5     6    1
    22     6     7   ar
    23     7     8   ar
    24     8     9   ar
    25     9    10   ar
    26    10    11   ar
    27    29    20    1
    28    11     2    1
    29    27    22   ar
    30    11     6   ar
    31    15    17    1
    32    15    18    1
    33    29    30    1
@<TRIPOS>MOLECULE
*****
 30 33 0 0 0
SMALL
GASTEIGER

@<TRIPOS>ATOM
      1 N          63.5273   89.9876   12.8803 N.3     1  UNL1       -0.2641
      2 C          64.3074   91.1749   12.3987 C.3     1  UNL1        0.0981
      3 C          64.2331   91.5870   10.9584 C.3     1  UNL1        0.0224
      4 C          65.0131   92.7743   10.4768 C.3     1  UNL1        0.0065
      5 C          65.8674   93.5494   11.4355 C.3     1  UNL1        0.0277
      6 C          65.9418   93.1373   12.8758 C.ar    1  UNL1       -0.0073
      7 C          66.7961   93.9125   13.8346 C.ar    1  UNL1       -0.0015
      8 C          66.8704   93.5003   15.2749 C.ar    1  UNL1        0.0203
      9 C          66.0904   92.3131   15.7566 C.ar    1  UNL1        0.0985
     10 N          65.2361   91.5379   14.7978 N.ar    1  UNL1       -0.2471
     11 C          65.1617   91.9500   13.3574 C.ar    1  UNL1        0.0695
     12 C          64.2217   88.8857   13.6243 C.3     1  UNL1        0.0989
     13 C          63.9041   87.1834   15.5612 C.2     1  UNL1       -0.0125
     14 C          63.8504   88.5917   15.0476 C.2     1  UNL1       -0.0120
     15 N          65.1687   84.9456   15.1832 N.3     1  UNL1       -0.3175
     16 C          64.3291   86.0690   14.6515 C.3     1  UNL1        0.0916
     17 H          65.3628   84.2818   14.4335 H       1  UNL1        0.1192
     18 H          64.6671   84.4725   15.9348 H       1  UNL1        0.1192
     19 C          62.0529   89.9023   12.6180 C.3     1  UNL1        0.0888
     20 C          61.5450   89.1337   11.4342 C.3     1  UNL1        0.0748
     21 C          62.3463   87.9928   10.8808 C.3     1  UNL1        0.0432
     22 C          61.8383   87.2242    9.6970 C.ar    1  UNL1       -0.0234
     23 C          62.6396   86.0833    9.1436 C.ar    1  UNL1       -0.0045
     24 C          62.1316   85.3147    7.9599 C.ar    1  UNL1       -0.0003
     25 C          60.8224   85.6870    7.3296 C.ar    1  UNL1       -0.0003
     26 C          60.0211   86.8279    7.8830 C.ar    1  UNL1       -0.0032
     27 C          60.5291   87.5964    9.0667 C.ar    1  UNL1       -0.0103
     28 C          59.7278   88.7374    9.6202 C.3     1  UNL1        0.0953
     29 N          60.2357   89.5060   10.8039 N.3     1  UNL1       -0.2934
     30 H          59.5258   89.4283   11.5321 H       1  UNL1        0.1236
@<TRIPOS>BOND
     1    15    16    1
     2    16    13    1
     3    13    14    2
     4    14    12    1
     5    12     1    1
     6     1    19    1
     7    20    19    1
     8    20    21    1
     9    21    22    1
    10    22    23   ar
    11    23    24   ar
    12    24    25   ar
    13    25    26   ar
    14    26    27   ar
    15    27    28    1
    16    28    29    1
    17     2     1    1
    18     2     3    1
    19     3     4    1
    20     4     5    1
    21     5     6    1
    22     6     7   ar
    23     7     8   ar
    24     8     9   ar
    25     9    10   ar
    26    10    11   ar
    27    29    20    1
    28    11     2    1
    29    27    22   ar
    30    11     6   ar
    31    15    17    1
    32    15    18    1
    33    29    30    1
@<TRIPOS>MOLECULE
*****
 30 33 0 0 0
SMALL
GASTEIGER

@<TRIPOS>ATOM
      1 N          64.7054   90.8602   14.5835 N.3     1  UNL1       -0.2641
      2 C          64.3296   91.0455   13.1432 C.3     1  UNL1        0.0981
      3 C          63.3732   90.0929   12.4891 C.3     1  UNL1        0.0224
      4 C          62.9974   90.2781   11.0488 C.3     1  UNL1        0.0065
      5 C          63.5780   91.4159   10.2626 C.3     1  UNL1        0.0277
      6 C          64.5344   92.3685   10.9166 C.ar    1  UNL1       -0.0073
      7 C          65.1150   93.5064   10.1304 C.ar    1  UNL1       -0.0015
      8 C          66.0714   94.4590   10.7844 C.ar    1  UNL1        0.0203
      9 C          66.4472   94.2738   12.2247 C.ar    1  UNL1        0.0985
     10 N          65.8667   93.1359   13.0110 N.ar    1  UNL1       -0.2471
     11 C          64.9102   92.1833   12.3569 C.ar    1  UNL1        0.0695
     12 C          66.0743   91.2493   15.0574 C.3     1  UNL1        0.0989
     13 C          67.6211   93.0004   16.1938 C.2     1  UNL1       -0.0125
     14 C          66.2493   92.4486   15.9412 C.2     1  UNL1       -0.0120
     15 N          69.0117   92.4220   14.0768 N.3     1  UNL1       -0.3175
     16 C          68.8179   92.3529   15.5626 C.3     1  UNL1        0.0916
     17 H          69.8699   91.9327   13.8227 H       1  UNL1        0.1192
     18 H          69.0784   93.3979   13.7877 H       1  UNL1        0.1192
     19 C          63.7123   90.2859   15.5498 C.3     1  UNL1        0.0888
     20 C          63.6243   88.8007   15.7410 C.3     1  UNL1        0.0748
     21 C          64.2731   87.8776   14.7526 C.3     1  UNL1        0.0432
     22 C          64.1851   86.3924   14.9437 C.ar    1  UNL1       -0.0234
     23 C          64.8338   85.4693   13.9554 C.ar    1  UNL1       -0.0045
     24 C          64.7458   83.9841   14.1465 C.ar    1  UNL1       -0.0003
     25 C          64.0091   83.4221   15.3261 C.ar    1  UNL1       -0.0003
     26 C          63.3603   84.3452   16.3145 C.ar    1  UNL1       -0.0032
     27 C          63.4483   85.8304   16.1233 C.ar    1  UNL1       -0.0103
     28 C          62.7996   86.7536   17.1117 C.3     1  UNL1        0.0953
     29 N          62.8876   88.2387   16.9205 N.3     1  UNL1       -0.2934
     30 H          63.3357   88.6170   17.7551 H       1  UNL1        0.1236
@<TRIPOS>BOND
     1    15    16    1
     2    16    13    1
     3    13    14    2
     4    14    12    1
     5    12     1    1
     6     1    19    1
     7    20    19    1
     8    20    21    1
     9    21    22    1
    10    22    23   ar
    11    23    24   ar
    12    24    25   ar
    13    25    26   ar
    14    26    27   ar
    15    27    28    1
    16    28    29    1
    17     2     1    1
    18     2     3    1
    19     3     4    1
    20     4     5    1
    21     5     6    1
    22     6     7   ar
    23     7     8   ar
    24     8     9   ar
    25     9    10   ar
    26    10    11   ar
    27    29    20    1
    28    11     2    1
    29    27    22   ar
    30    11     6   ar
    31    15    17    1
    32    15    18    1
    33    29    30    1
@<TRIPOS>MOLECULE
*****
 30 33 0 0 0
SMALL
GASTEIGER

@<TRIPOS>ATOM
      1 N          63.3972   90.3753   11.7727 N.3     1  UNL1       -0.2641
      2 C          64.3850   91.5039   11.7497 C.3     1  UNL1        0.0981
      3 C          64.7253   92.1765   10.4529 C.3     1  UNL1        0.0224
      4 C          65.7132   93.3050   10.4299 C.3     1  UNL1        0.0065
      5 C          66.3607   93.7610   11.7038 C.3     1  UNL1        0.0277
      6 C          66.0204   93.0884   13.0006 C.ar    1  UNL1       -0.0073
      7 C          66.6680   93.5444   14.2745 C.ar    1  UNL1       -0.0015
      8 C          66.3277   92.8718   15.5713 C.ar    1  UNL1        0.0203
      9 C          65.3398   91.7432   15.5943 C.ar    1  UNL1        0.0985
     10 N          64.6923   91.2873   14.3205 N.ar    1  UNL1       -0.2471
     11 C          65.0326   91.9599   13.0235 C.ar    1  UNL1        0.0695
     12 C          62.7818   89.8911   10.4933 C.3     1  UNL1        0.0989
     13 C          60.2037   89.8568   10.1733 C.2     1  UNL1       -0.0125
     14 C          61.5286   90.5315    9.9743 C.2     1  UNL1       -0.0120
     15 N          59.4231   88.4444   12.2094 N.3     1  UNL1       -0.3175
     16 C          60.1321   88.5416   10.8911 C.3     1  UNL1        0.0916
     17 H          59.4718   87.4848   12.5517 H       1  UNL1        0.1192
     18 H          58.4465   88.7139   12.0908 H       1  UNL1        0.1192
     19 C          63.0247   89.7311   13.0750 C.3     1  UNL1        0.0888
     20 C          63.3951   88.3014   13.3376 C.3     1  UNL1        0.0748
     21 C          62.9354   87.2234   12.4014 C.3     1  UNL1        0.0432
     22 C          63.3059   85.7937   12.6639 C.ar    1  UNL1       -0.0234
     23 C          62.8461   84.7157   11.7277 C.ar    1  UNL1       -0.0045
     24 C          63.2166   83.2862   11.9903 C.ar    1  UNL1       -0.0003
     25 C          64.0468   82.9346   13.1891 C.ar    1  UNL1       -0.0003
     26 C          64.5066   84.0126   14.1253 C.ar    1  UNL1       -0.0032
     27 C          64.1361   85.4421   13.8627 C.ar    1  UNL1       -0.0103
     28 C          64.5959   86.5202   14.7989 C.3     1  UNL1        0.0953
     29 N          64.2254   87.9498   14.5363 N.3     1  UNL1       -0.2934
     30 H          65.0989   88.4697   14.4523 H       1  UNL1        0.1236
@<TRIPOS>BOND
     1    15    16    1
     2    16    13    1
     3    13    14    2
     4    14    12    1
     5    12     1    1
     6     1    19    1
     7    20    19    1
     8    20    21    1
     9    21    22    1
    10    22    23   ar
    11    23    24   ar
    12    24    25   ar
    13    25    26   ar
    14    26    27   ar
    15    27    28    1
    16    28    29    1
    17     2     1    1
    18     2     3    1
    19     3     4    1
    20     4     5    1
    21     5     6    1
    22     6     7   ar
    23     7     8   ar
    24     8     9   ar
    25     9    10   ar
    26    10    11   ar
    27    29    20    1
    28    11     2    1
    29    27    22   ar
    30    11     6   ar
    31    15    17    1
    32    15    18    1
    33    29    30    1
@<TRIPOS>MOLECULE
*****
 30 33 0 0 0
SMALL
GASTEIGER

@<TRIPOS>ATOM
      1 N          63.3888   88.1633   13.1382 N.3     1  UNL1       -0.2641
      2 C          62.7029   87.4084   12.0384 C.3     1  UNL1        0.0981
      3 C          62.8915   85.9254   11.9157 C.3     1  UNL1        0.0224
      4 C          62.2057   85.1706   10.8159 C.3     1  UNL1        0.0065
      5 C          61.3312   85.8987    9.8386 C.3     1  UNL1        0.0277
      6 C          61.1426   87.3817    9.9612 C.ar    1  UNL1       -0.0073
      7 C          60.2681   88.1099    8.9839 C.ar    1  UNL1       -0.0015
      8 C          60.0795   89.5929    9.1065 C.ar    1  UNL1        0.0203
      9 C          60.7654   90.3478   10.2064 C.ar    1  UNL1        0.0985
     10 N          61.6398   89.6196   11.1837 N.ar    1  UNL1       -0.2471
     11 C          61.8285   88.1366   11.0611 C.ar    1  UNL1        0.0695
     12 C          64.3690   87.4620   14.0312 C.3     1  UNL1        0.0989
     13 C          64.2378   85.3408   15.5256 C.2     1  UNL1       -0.0125
     14 C          63.8918   86.7792   15.2787 C.2     1  UNL1       -0.0120
     15 N          66.5528   84.7422   14.5094 N.3     1  UNL1       -0.3175
     16 C          65.0611   84.5850   14.5251 C.3     1  UNL1        0.0916
     17 H          66.9482   84.1601   13.7710 H       1  UNL1        0.1192
     18 H          66.9345   84.4542   15.4104 H       1  UNL1        0.1192
     19 C          63.0945   89.6195   13.3452 C.3     1  UNL1        0.0888
     20 C          64.0594   90.4788   14.1072 C.3     1  UNL1        0.0748
     21 C          65.4323   90.7326   13.5590 C.3     1  UNL1        0.0432
     22 C          66.3972   91.5919   14.3210 C.ar    1  UNL1       -0.0234
     23 C          67.7702   91.8456   13.7728 C.ar    1  UNL1       -0.0045
     24 C          68.7350   92.7049   14.5348 C.ar    1  UNL1       -0.0003
     25 C          68.3269   93.3104   15.8451 C.ar    1  UNL1       -0.0003
     26 C          66.9539   93.0567   16.3933 C.ar    1  UNL1       -0.0032
     27 C          65.9891   92.1974   15.6313 C.ar    1  UNL1       -0.0103
     28 C          64.6161   91.9436   16.1795 C.3     1  UNL1        0.0953
     29 N          63.6512   91.0844   15.4175 N.3     1  UNL1       -0.2934
     30 H          62.8282   91.6580   15.2331 H       1  UNL1        0.1236
@<TRIPOS>BOND
     1    15    16    1
     2    16    13    1
     3    13    14    2
     4    14    12    1
     5    12     1    1
     6     1    19    1
     7    20    19    1
     8    20    21    1
     9    21    22    1
    10    22    23   ar
    11    23    24   ar
    12    24    25   ar
    13    25    26   ar
    14    26    27   ar
    15    27    28    1
    16    28    29    1
    17     2     1    1
    18     2     3    1
    19     3     4    1
    20     4     5    1
    21     5     6    1
    22     6     7   ar
    23     7     8   ar
    24     8     9   ar
    25     9    10   ar
    26    10    11   ar
    27    29    20    1
    28    11     2    1
    29    27    22   ar
    30    11     6   ar
    31    15    17    1
    32    15    18    1
    33    29    30    1
