@<TRIPOS>MOLECULE
*****
 28 30 0 0 0
SMALL
GASTEIGER

@<TRIPOS>ATOM
      1 C          64.1810   88.6216   14.2438 C.ar    1  UNL1       -0.0006
      2 C          64.6625   87.4890   15.1013 C.ar    1  UNL1       -0.0000
      3 C          64.4193   86.0709   14.6768 C.ar    1  UNL1        0.0000
      4 C          63.6946   85.7856   13.3949 C.ar    1  UNL1        0.0000
      5 C          63.2130   86.9183   12.5374 C.ar    1  UNL1        0.0000
      6 C          63.4562   88.3362   12.9618 C.ar    1  UNL1       -0.0000
      7 C          63.4514   84.3677   12.9704 C.ar    1  UNL1        0.0013
      8 C          63.8030   83.9303   11.5794 C.ar    1  UNL1        0.0013
      9 C          63.5598   82.5123   11.1550 C.ar    1  UNL1        0.0153
     10 C          62.9650   81.5316   12.1216 C.ar    1  UNL1        0.0546
     11 N          62.7218   80.1137   11.6972 N.pl3   1  UNL1       -0.3560
     12 C          62.6133   81.9689   13.5127 C.ar    1  UNL1        0.0546
     13 N          62.0185   80.9883   14.4794 N.pl3   1  UNL1       -0.3560
     14 C          62.8565   83.3869   13.9371 C.ar    1  UNL1        0.0153
     15 H          62.9526   79.8267   10.7842 H       1  UNL1        0.1424
     16 H          62.3314   79.4700   12.3316 H       1  UNL1        0.1424
     17 H          61.8589   80.0576   14.2008 H       1  UNL1        0.1424
     18 H          61.7878   81.2753   15.3924 H       1  UNL1        0.1424
     19 C          63.0004   89.6442   16.8052 C.3     1  UNL1        0.0264
     20 C          63.8339   90.5509   15.9489 C.2     1  UNL1       -0.0436
     21 C          64.0771   91.9689   16.3733 C.3     1  UNL1        0.0264
     22 C          64.4241   90.0396   14.6682 C.2     1  UNL1       -0.0078
     23 C          65.2576   90.9463   13.8119 C.ar    1  UNL1        0.0025
     24 C          66.7001   91.1805   14.1502 C.ar    1  UNL1        0.0207
     25 C          67.5335   92.0873   13.2939 C.ar    1  UNL1        0.0989
     26 N          66.9245   92.7598   12.0994 N.ar    1  UNL1       -0.2423
     27 C          65.4820   92.5256   11.7612 C.ar    1  UNL1        0.0989
     28 C          64.6486   91.6189   12.6175 C.ar    1  UNL1        0.0207
@<TRIPOS>BOND
     1    19    20    1
     2    20    21    1
     3    20    22    2
     4    22    23    1
     5    23    24   ar
     6    24    25   ar
     7    25    26   ar
     8    26    27   ar
     9    27    28   ar
    10    22     1    1
    11     1     2   ar
    12     2     3   ar
    13     3     4   ar
    14     4     7    1
    15     7     8   ar
    16     8     9   ar
    17     9    10   ar
    18    10    11    1
    19    10    12   ar
    20    12    13    1
    21    12    14   ar
    22     4     5   ar
    23     5     6   ar
    24    28    23   ar
    25     6     1   ar
    26    14     7   ar
    27    11    15    1
    28    11    16    1
    29    13    17    1
    30    13    18    1
@<TRIPOS>MOLECULE
*****
 28 30 0 0 0
SMALL
GASTEIGER

@<TRIPOS>ATOM
      1 C          64.5221   90.1481   13.9113 C.ar    1  UNL1       -0.0006
      2 C          63.8034   90.5429   12.6553 C.ar    1  UNL1       -0.0000
      3 C          64.3361   91.6583   11.8054 C.ar    1  UNL1        0.0000
      4 C          65.5874   92.3788   12.2116 C.ar    1  UNL1        0.0000
      5 C          66.3061   91.9840   13.4676 C.ar    1  UNL1        0.0000
      6 C          65.7735   90.8687   14.3175 C.ar    1  UNL1       -0.0000
      7 C          66.1201   93.4942   11.3617 C.ar    1  UNL1        0.0013
      8 C          65.9570   94.9180   11.8045 C.ar    1  UNL1        0.0013
      9 C          66.4897   96.0334   10.9545 C.ar    1  UNL1        0.0153
     10 C          67.1854   95.7248    9.6619 C.ar    1  UNL1        0.0546
     11 N          67.7180   96.8402    8.8121 N.pl3   1  UNL1       -0.3560
     12 C          67.3484   94.3010    9.2192 C.ar    1  UNL1        0.0546
     13 N          68.0440   93.9924    7.9266 N.pl3   1  UNL1       -0.3560
     14 C          66.8158   93.1856   10.0691 C.ar    1  UNL1        0.0153
     15 H          67.6110   97.7747    9.1027 H       1  UNL1        0.1424
     16 H          68.1746   96.6377    7.9637 H       1  UNL1        0.1424
     17 H          68.3936   94.7245    7.3688 H       1  UNL1        0.1424
     18 H          68.1510   93.0579    7.6361 H       1  UNL1        0.1424
     19 C          63.4512   90.7309   16.6524 C.3     1  UNL1        0.0264
     20 C          63.4540   89.3242   16.1317 C.2     1  UNL1       -0.0436
     21 C          62.9214   88.2087   16.9816 C.3     1  UNL1        0.0264
     22 C          63.9895   89.0328   14.7612 C.2     1  UNL1       -0.0078
     23 C          63.9923   87.6260   14.2405 C.ar    1  UNL1        0.0025
     24 C          64.7265   86.5516   14.9865 C.ar    1  UNL1        0.0207
     25 C          64.7293   85.1450   14.4659 C.ar    1  UNL1        0.0989
     26 N          63.9979   84.8126   13.1991 N.ar    1  UNL1       -0.2423
     27 C          63.2637   85.8870   12.4531 C.ar    1  UNL1        0.0989
     28 C          63.2609   87.2937   12.9738 C.ar    1  UNL1        0.0207
@<TRIPOS>BOND
     1    19    20    1
     2    20    21    1
     3    20    22    2
     4    22    23    1
     5    23    24   ar
     6    24    25   ar
     7    25    26   ar
     8    26    27   ar
     9    27    28   ar
    10    22     1    1
    11     1     2   ar
    12     2     3   ar
    13     3     4   ar
    14     4     7    1
    15     7     8   ar
    16     8     9   ar
    17     9    10   ar
    18    10    11    1
    19    10    12   ar
    20    12    13    1
    21    12    14   ar
    22     4     5   ar
    23     5     6   ar
    24    28    23   ar
    25     6     1   ar
    26    14     7   ar
    27    11    15    1
    28    11    16    1
    29    13    17    1
    30    13    18    1
@<TRIPOS>MOLECULE
*****
 28 30 0 0 0
SMALL
GASTEIGER

@<TRIPOS>ATOM
      1 C          62.9372   89.1878   12.0059 C.ar    1  UNL1       -0.0006
      2 C          63.5248   88.6623   13.2821 C.ar    1  UNL1       -0.0000
      3 C          64.5702   89.4554   14.0089 C.ar    1  UNL1        0.0000
      4 C          65.0278   90.7741   13.4596 C.ar    1  UNL1        0.0000
      5 C          64.4402   91.2996   12.1835 C.ar    1  UNL1        0.0000
      6 C          63.3949   90.5065   11.4567 C.ar    1  UNL1       -0.0000
      7 C          66.0731   91.5672   14.1865 C.ar    1  UNL1        0.0013
      8 C          65.7043   92.3474   15.4133 C.ar    1  UNL1        0.0013
      9 C          66.7496   93.1405   16.1402 C.ar    1  UNL1        0.0153
     10 C          68.1637   93.1534   15.6401 C.ar    1  UNL1        0.0546
     11 N          69.2090   93.9465   16.3670 N.pl3   1  UNL1       -0.3560
     12 C          68.5326   92.3732   14.4133 C.ar    1  UNL1        0.0546
     13 N          69.9467   92.3860   13.9132 N.pl3   1  UNL1       -0.3560
     14 C          67.4873   91.5801   13.6864 C.ar    1  UNL1        0.0153
     15 H          68.9669   94.4585   17.1722 H       1  UNL1        0.1424
     16 H          70.1372   93.9549   16.0388 H       1  UNL1        0.1424
     17 H          70.6328   92.9066   14.3903 H       1  UNL1        0.1424
     18 H          70.1887   91.8740   13.1080 H       1  UNL1        0.1424
     19 C          60.1458   90.2583   11.7566 C.3     1  UNL1        0.0264
     20 C          60.4962   88.9299   11.1544 C.2     1  UNL1       -0.0436
     21 C          59.4509   88.1368   10.4275 C.3     1  UNL1        0.0264
     22 C          61.8919   88.3947   11.2791 C.2     1  UNL1       -0.0078
     23 C          62.2423   87.0663   10.6769 C.ar    1  UNL1        0.0025
     24 C          62.4548   86.9464    9.1969 C.ar    1  UNL1        0.0207
     25 C          62.8052   85.6180    8.5947 C.ar    1  UNL1        0.0989
     26 N          62.9430   84.4095    9.4726 N.ar    1  UNL1       -0.2423
     27 C          62.7306   84.5294   10.9526 C.ar    1  UNL1        0.0989
     28 C          62.3802   85.8578   11.5547 C.ar    1  UNL1        0.0207
@<TRIPOS>BOND
     1    19    20    1
     2    20    21    1
     3    20    22    2
     4    22    23    1
     5    23    24   ar
     6    24    25   ar
     7    25    26   ar
     8    26    27   ar
     9    27    28   ar
    10    22     1    1
    11     1     2   ar
    12     2     3   ar
    13     3     4   ar
    14     4     7    1
    15     7     8   ar
    16     8     9   ar
    17     9    10   ar
    18    10    11    1
    19    10    12   ar
    20    12    13    1
    21    12    14   ar
    22     4     5   ar
    23     5     6   ar
    24    28    23   ar
    25     6     1   ar
    26    14     7   ar
    27    11    15    1
    28    11    16    1
    29    13    17    1
    30    13    18    1
@<TRIPOS>MOLECULE
*****
 28 30 0 0 0
SMALL
GASTEIGER

@<TRIPOS>ATOM
      1 C          63.4538   88.3477   12.6372 C.ar    1  UNL1       -0.0006
      2 C          64.0819   87.5772   13.7605 C.ar    1  UNL1       -0.0000
      3 C          63.8763   86.0946   13.8601 C.ar    1  UNL1        0.0000
      4 C          63.0426   85.3827   12.8364 C.ar    1  UNL1        0.0000
      5 C          62.4144   86.1532   11.7131 C.ar    1  UNL1        0.0000
      6 C          62.6200   87.6356   11.6135 C.ar    1  UNL1       -0.0000
      7 C          62.8370   83.9002   12.9360 C.ar    1  UNL1        0.0013
      8 C          62.4088   83.2881   14.2367 C.ar    1  UNL1        0.0013
      9 C          62.2032   81.8055   14.3363 C.ar    1  UNL1        0.0153
     10 C          62.4258   80.9352   13.1351 C.ar    1  UNL1        0.0546
     11 N          62.2202   79.4527   13.2347 N.pl3   1  UNL1       -0.3560
     12 C          62.8540   81.5473   11.8343 C.ar    1  UNL1        0.0546
     13 N          63.0765   80.6769   10.6332 N.pl3   1  UNL1       -0.3560
     14 C          63.0595   83.0297   11.7347 C.ar    1  UNL1        0.0153
     15 H          61.9392   79.0509   14.0885 H       1  UNL1        0.1424
     16 H          62.3663   78.8814   12.4463 H       1  UNL1        0.1424
     17 H          62.9416   79.7039   10.6985 H       1  UNL1        0.1424
     18 H          63.3575   81.0787    9.7794 H       1  UNL1        0.1424
     19 C          62.7894   89.7864   10.0899 C.3     1  UNL1        0.0264
     20 C          63.3272   90.5495   11.2640 C.2     1  UNL1       -0.0436
     21 C          63.5328   92.0321   11.1644 C.3     1  UNL1        0.0264
     22 C          63.6593   89.8302   12.5376 C.2     1  UNL1       -0.0078
     23 C          64.1971   90.5933   13.7117 C.ar    1  UNL1        0.0025
     24 C          65.4897   91.3445   13.5896 C.ar    1  UNL1        0.0207
     25 C          66.0274   92.1077   14.7637 C.ar    1  UNL1        0.0989
     26 N          65.2725   92.1196   16.0598 N.ar    1  UNL1       -0.2423
     27 C          63.9800   91.3684   16.1820 C.ar    1  UNL1        0.0989
     28 C          63.4423   90.6053   15.0079 C.ar    1  UNL1        0.0207
@<TRIPOS>BOND
     1    19    20    1
     2    20    21    1
     3    20    22    2
     4    22    23    1
     5    23    24   ar
     6    24    25   ar
     7    25    26   ar
     8    26    27   ar
     9    27    28   ar
    10    22     1    1
    11     1     2   ar
    12     2     3   ar
    13     3     4   ar
    14     4     7    1
    15     7     8   ar
    16     8     9   ar
    17     9    10   ar
    18    10    11    1
    19    10    12   ar
    20    12    13    1
    21    12    14   ar
    22     4     5   ar
    23     5     6   ar
    24    28    23   ar
    25     6     1   ar
    26    14     7   ar
    27    11    15    1
    28    11    16    1
    29    13    17    1
    30    13    18    1
@<TRIPOS>MOLECULE
*****
 28 30 0 0 0
SMALL
GASTEIGER

@<TRIPOS>ATOM
      1 C          63.4028   88.2805   12.5319 C.ar    1  UNL1       -0.0006
      2 C          64.0644   87.4518   13.5929 C.ar    1  UNL1       -0.0000
      3 C          63.9138   85.9594   13.5815 C.ar    1  UNL1        0.0000
      4 C          63.1016   85.2957   12.5092 C.ar    1  UNL1        0.0000
      5 C          62.4400   86.1244   11.4483 C.ar    1  UNL1        0.0000
      6 C          62.5906   87.6167   11.4596 C.ar    1  UNL1       -0.0000
      7 C          62.9510   83.8034   12.4979 C.ar    1  UNL1        0.0013
      8 C          63.3400   83.0195   11.2796 C.ar    1  UNL1        0.0013
      9 C          63.1894   81.5271   11.2683 C.ar    1  UNL1        0.0153
     10 C          62.6498   80.8186   12.4752 C.ar    1  UNL1        0.0546
     11 N          62.4992   79.3263   12.4639 N.pl3   1  UNL1       -0.3560
     12 C          62.2609   81.6024   13.6936 C.ar    1  UNL1        0.0546
     13 N          61.7213   80.8939   14.9005 N.pl3   1  UNL1       -0.3560
     14 C          62.4114   83.0948   13.7049 C.ar    1  UNL1        0.0153
     15 H          62.7545   78.8118   11.6643 H       1  UNL1        0.1424
     16 H          62.1451   78.8612   13.2561 H       1  UNL1        0.1424
     17 H          61.6225   79.9144   14.8931 H       1  UNL1        0.1424
     18 H          61.4660   81.4084   15.7002 H       1  UNL1        0.1424
     19 C          62.7808   89.8697   10.0646 C.3     1  UNL1        0.0264
     20 C          63.2424   90.5674   11.3096 C.2     1  UNL1       -0.0436
     21 C          63.3930   92.0599   11.3210 C.3     1  UNL1        0.0264
     22 C          63.5534   89.7728   12.5433 C.2     1  UNL1       -0.0078
     23 C          64.0150   90.4707   13.7883 C.ar    1  UNL1        0.0025
     24 C          63.2180   90.3526   15.0536 C.ar    1  UNL1        0.0207
     25 C          63.6796   91.0504   16.2985 C.ar    1  UNL1        0.0989
     26 N          64.9382   91.8663   16.2782 N.ar    1  UNL1       -0.2423
     27 C          65.7351   91.9844   15.0130 C.ar    1  UNL1        0.0989
     28 C          65.2735   91.2866   13.7680 C.ar    1  UNL1        0.0207
@<TRIPOS>BOND
     1    19    20    1
     2    20    21    1
     3    20    22    2
     4    22    23    1
     5    23    24   ar
     6    24    25   ar
     7    25    26   ar
     8    26    27   ar
     9    27    28   ar
    10    22     1    1
    11     1     2   ar
    12     2     3   ar
    13     3     4   ar
    14     4     7    1
    15     7     8   ar
    16     8     9   ar
    17     9    10   ar
    18    10    11    1
    19    10    12   ar
    20    12    13    1
    21    12    14   ar
    22     4     5   ar
    23     5     6   ar
    24    28    23   ar
    25     6     1   ar
    26    14     7   ar
    27    11    15    1
    28    11    16    1
    29    13    17    1
    30    13    18    1
@<TRIPOS>MOLECULE
*****
 28 30 0 0 0
SMALL
GASTEIGER

@<TRIPOS>ATOM
      1 C          63.1694   86.1463   12.2158 C.ar    1  UNL1       -0.0006
      2 C          63.8599   85.9609   13.5344 C.ar    1  UNL1       -0.0000
      3 C          64.2172   87.1554   14.3685 C.ar    1  UNL1        0.0000
      4 C          63.8840   88.5353   13.8839 C.ar    1  UNL1        0.0000
      5 C          63.1934   88.7207   12.5653 C.ar    1  UNL1        0.0000
      6 C          62.8361   87.5263   11.7313 C.ar    1  UNL1       -0.0000
      7 C          64.2413   89.7297   14.7179 C.ar    1  UNL1        0.0013
      8 C          63.4447   90.0512   15.9476 C.ar    1  UNL1        0.0013
      9 C          63.8021   91.2457   16.7817 C.ar    1  UNL1        0.0153
     10 C          64.9559   92.1186   16.3860 C.ar    1  UNL1        0.0546
     11 N          65.3132   93.3130   17.2200 N.pl3   1  UNL1       -0.3560
     12 C          65.7525   91.7971   15.1563 C.ar    1  UNL1        0.0546
     13 N          66.9063   92.6700   14.7607 N.pl3   1  UNL1       -0.3560
     14 C          65.3952   90.6027   14.3223 C.ar    1  UNL1        0.0153
     15 H          64.7904   93.5240   18.0271 H       1  UNL1        0.1424
     16 H          66.0706   93.8860   16.9604 H       1  UNL1        0.1424
     17 H          67.1409   93.4539   15.3081 H       1  UNL1        0.1424
     18 H          67.4291   92.4590   13.9536 H       1  UNL1        0.1424
     19 C          63.3769   83.3886   13.3785 C.3     1  UNL1        0.0264
     20 C          62.9158   83.5731   11.9631 C.2     1  UNL1       -0.0436
     21 C          62.5585   82.3786   11.1290 C.3     1  UNL1        0.0264
     22 C          62.8121   84.9519   11.3818 C.2     1  UNL1       -0.0078
     23 C          62.3509   85.1363    9.9663 C.ar    1  UNL1        0.0025
     24 C          63.2241   84.6946    8.8295 C.ar    1  UNL1        0.0207
     25 C          62.7630   84.8790    7.4141 C.ar    1  UNL1        0.0989
     26 N          61.4287   85.5052    7.1356 N.ar    1  UNL1       -0.2423
     27 C          60.5555   85.9469    8.2724 C.ar    1  UNL1        0.0989
     28 C          61.0166   85.7625    9.6878 C.ar    1  UNL1        0.0207
@<TRIPOS>BOND
     1    19    20    1
     2    20    21    1
     3    20    22    2
     4    22    23    1
     5    23    24   ar
     6    24    25   ar
     7    25    26   ar
     8    26    27   ar
     9    27    28   ar
    10    22     1    1
    11     1     2   ar
    12     2     3   ar
    13     3     4   ar
    14     4     7    1
    15     7     8   ar
    16     8     9   ar
    17     9    10   ar
    18    10    11    1
    19    10    12   ar
    20    12    13    1
    21    12    14   ar
    22     4     5   ar
    23     5     6   ar
    24    28    23   ar
    25     6     1   ar
    26    14     7   ar
    27    11    15    1
    28    11    16    1
    29    13    17    1
    30    13    18    1
