@<TRIPOS>MOLECULE
*****
 39 42 0 0 0
SMALL
GASTEIGER

@<TRIPOS>ATOM
      1 C          62.5863   86.1178   11.6281 C.ar    1  UNL1        0.0561
      2 C          62.8100   87.4775   12.2208 C.ar    1  UNL1        0.0196
      3 C          63.5984   87.6226   13.4886 C.ar    1  UNL1        0.0768
      4 N          64.1633   86.4080   14.1637 N.ar    1  UNL1       -0.2480
      5 C          63.9397   85.0483   13.5710 C.ar    1  UNL1        0.0812
      6 C          64.5045   83.8337   14.2461 C.ar    1  UNL1        0.0214
      7 C          64.2809   82.4741   13.6534 C.ar    1  UNL1        0.0312
      8 C          63.4924   82.3290   12.3856 C.ar    1  UNL1        0.1402
      9 F          63.2688   80.9693   11.7929 F       1  UNL1       -0.2042
     10 C          62.9275   83.5436   11.7105 C.ar    1  UNL1        0.0313
     11 C          63.1512   84.9032   12.3032 C.ar    1  UNL1        0.0243
     12 C          62.2451   88.6921   11.5457 C.ar    1  UNL1        0.0013
     13 C          60.9445   89.2741   12.0146 C.ar    1  UNL1        0.0000
     14 C          60.3797   90.4887   11.3396 C.ar    1  UNL1        0.0000
     15 C          61.1154   91.1213   10.1957 C.ar    1  UNL1        0.0000
     16 C          62.4160   90.5393    9.7269 C.ar    1  UNL1        0.0000
     17 C          62.9808   89.3247   10.4019 C.ar    1  UNL1        0.0000
     18 N          62.4970   85.6358    9.0767 N.am    1  UNL1       -0.3025
     19 C          61.7979   85.9727   10.3604 C.2     1  UNL1        0.2459
     20 O          60.3103   86.1646   10.3762 O.2     1  UNL1       -0.2701
     21 H          63.4734   85.5098    9.0663 H       1  UNL1        0.1497
     22 C          62.2698   84.7027    6.6626 C.3     1  UNL1        0.0213
     23 C          61.7086   85.4907    7.8089 C.3     1  UNL1        0.0720
     24 C          60.3587   86.1336    7.6875 C.3     1  UNL1        0.0213
     25 C          63.8221   88.9823   14.0813 C.3     1  UNL1        0.1109
     26 C          63.5548   89.2185   15.5383 C.3     1  UNL1        0.0278
     27 N          64.3129   90.1057   13.2170 N.pl3   1  UNL1       -0.3142
     28 H          64.1052   90.1134   12.2547 H       1  UNL1        0.1485
     29 C          65.1202   91.2174   13.8190 C.ar    1  UNL1        0.1429
     30 N          65.5223   91.1556   15.2628 N.ar    1  UNL1       -0.2084
     31 C          66.3296   92.2673   15.8647 C.ar    1  UNL1        0.2012
     32 N          66.7349   93.4408   15.0229 N.ar    1  UNL1       -0.2087
     33 C          66.3329   93.5025   13.5791 C.ar    1  UNL1        0.1396
     34 N          66.7382   94.6760   12.7373 N.pl3   1  UNL1       -0.3420
     35 C          65.5256   92.3908   12.9771 C.ar    1  UNL1        0.1308
     36 H          67.2681   95.4056   13.1323 H       1  UNL1        0.1437
     37 H          66.4744   94.7165   11.7896 H       1  UNL1        0.1437
     38 C          65.1236   92.4526   11.5333 C.1     1  UNL1        0.1061
     39 N          64.7216   92.5144   10.0895 N.1     1  UNL1       -0.1906
@<TRIPOS>BOND
     1    22    23    1
     2    23    24    1
     3    23    18    1
     4    18    19   am
     5    19    20    2
     6    19     1    1
     7     1     2   ar
     8     2    12    1
     9    12    13   ar
    10    13    14   ar
    11    14    15   ar
    12    15    16   ar
    13    16    17   ar
    14     2     3   ar
    15     3    25    1
    16    25    26    1
    17    25    27    1
    18    27    29    1
    19    29    30   ar
    20    30    31   ar
    21    31    32   ar
    22    32    33   ar
    23    33    34    1
    24    33    35   ar
    25    35    38    1
    26    38    39    3
    27     3     4   ar
    28     4     5   ar
    29     5     6   ar
    30     6     7   ar
    31     7     8   ar
    32     8     9    1
    33     8    10   ar
    34    10    11   ar
    35    11     1   ar
    36    17    12   ar
    37    35    29   ar
    38    11     5   ar
    39    18    21    1
    40    27    28    1
    41    34    36    1
    42    34    37    1
@<TRIPOS>MOLECULE
*****
 39 42 0 0 0
SMALL
GASTEIGER

@<TRIPOS>ATOM
      1 C          65.1509   92.0655   13.1791 C.ar    1  UNL1        0.0561
      2 C          64.1653   90.9392   13.0795 C.ar    1  UNL1        0.0196
      3 C          63.3952   90.7266   11.8099 C.ar    1  UNL1        0.0768
      4 N          63.6107   91.6403   10.6401 N.ar    1  UNL1       -0.2480
      5 C          64.5963   92.7667   10.7397 C.ar    1  UNL1        0.0812
      6 C          64.8118   93.6804    9.5698 C.ar    1  UNL1        0.0214
      7 C          65.7974   94.8067    9.6695 C.ar    1  UNL1        0.0312
      8 C          66.5675   95.0193   10.9390 C.ar    1  UNL1        0.1402
      9 F          67.5532   96.1457   11.0386 F       1  UNL1       -0.2042
     10 C          66.3520   94.1056   12.1089 C.ar    1  UNL1        0.0313
     11 C          65.3664   92.9793   12.0092 C.ar    1  UNL1        0.0243
     12 C          63.9498   90.0254   14.2494 C.ar    1  UNL1        0.0013
     13 C          63.2694   90.5363   15.4847 C.ar    1  UNL1        0.0000
     14 C          63.0538   89.6226   16.6546 C.ar    1  UNL1        0.0000
     15 C          63.5187   88.1980   16.5891 C.ar    1  UNL1        0.0000
     16 C          64.1991   87.6871   15.3538 C.ar    1  UNL1        0.0000
     17 C          64.4146   88.6008   14.1839 C.ar    1  UNL1        0.0000
     18 N          67.4169   92.3832   14.4098 N.am    1  UNL1       -0.3025
     19 C          65.9210   92.2781   14.4487 C.2     1  UNL1        0.2459
     20 O          65.1954   92.3856   15.7570 O.2     1  UNL1       -0.2701
     21 H          67.8932   92.3126   13.5511 H       1  UNL1        0.1497
     22 C          68.4464   91.4415   16.6014 C.3     1  UNL1        0.0213
     23 C          68.1870   92.5958   15.6794 C.3     1  UNL1        0.0720
     24 C          68.6977   93.9628   16.0268 C.3     1  UNL1        0.0213
     25 C          62.4095   89.6003   11.7103 C.3     1  UNL1        0.1109
     26 C          61.2225   89.5592   12.6264 C.3     1  UNL1        0.0278
     27 N          62.6110   88.5150   10.6947 N.pl3   1  UNL1       -0.3142
     28 H          63.4206   87.9557   10.7259 H       1  UNL1        0.1485
     29 C          61.5790   88.2819    9.6314 C.ar    1  UNL1        0.1429
     30 N          60.7255   89.4187    9.1525 N.ar    1  UNL1       -0.2084
     31 C          59.6934   89.1856    8.0893 C.ar    1  UNL1        0.2012
     32 N          59.5148   87.8157    7.5049 N.ar    1  UNL1       -0.2087
     33 C          60.3682   86.6789    7.9838 C.ar    1  UNL1        0.1396
     34 N          60.1896   85.3091    7.3994 N.pl3   1  UNL1       -0.3420
     35 C          61.4003   86.9120    9.0471 C.ar    1  UNL1        0.1308
     36 H          59.5122   85.1561    6.7016 H       1  UNL1        0.1437
     37 H          60.7497   84.5629    7.7137 H       1  UNL1        0.1437
     38 C          62.2538   85.7752    9.5259 C.1     1  UNL1        0.1061
     39 N          63.1072   84.6384   10.0047 N.1     1  UNL1       -0.1906
@<TRIPOS>BOND
     1    22    23    1
     2    23    24    1
     3    23    18    1
     4    18    19   am
     5    19    20    2
     6    19     1    1
     7     1     2   ar
     8     2    12    1
     9    12    13   ar
    10    13    14   ar
    11    14    15   ar
    12    15    16   ar
    13    16    17   ar
    14     2     3   ar
    15     3    25    1
    16    25    26    1
    17    25    27    1
    18    27    29    1
    19    29    30   ar
    20    30    31   ar
    21    31    32   ar
    22    32    33   ar
    23    33    34    1
    24    33    35   ar
    25    35    38    1
    26    38    39    3
    27     3     4   ar
    28     4     5   ar
    29     5     6   ar
    30     6     7   ar
    31     7     8   ar
    32     8     9    1
    33     8    10   ar
    34    10    11   ar
    35    11     1   ar
    36    17    12   ar
    37    35    29   ar
    38    11     5   ar
    39    18    21    1
    40    27    28    1
    41    34    36    1
    42    34    37    1
@<TRIPOS>MOLECULE
*****
 39 42 0 0 0
SMALL
GASTEIGER

@<TRIPOS>ATOM
      1 C          62.7617   86.3097   11.8495 C.ar    1  UNL1        0.0561
      2 C          62.8975   87.7157   12.3542 C.ar    1  UNL1        0.0196
      3 C          63.6673   87.9900   13.6120 C.ar    1  UNL1        0.0768
      4 N          64.3012   86.8583   14.3652 N.ar    1  UNL1       -0.2480
      5 C          64.1654   85.4522   13.8606 C.ar    1  UNL1        0.0812
      6 C          64.7993   84.3205   14.6138 C.ar    1  UNL1        0.0214
      7 C          64.6635   82.9145   14.1091 C.ar    1  UNL1        0.0312
      8 C          63.8937   82.6403   12.8513 C.ar    1  UNL1        0.1402
      9 F          63.7579   81.2342   12.3466 F       1  UNL1       -0.2042
     10 C          63.2598   83.7719   12.0981 C.ar    1  UNL1        0.0313
     11 C          63.3956   85.1779   12.6027 C.ar    1  UNL1        0.0243
     12 C          62.2635   88.8475   11.6010 C.ar    1  UNL1        0.0013
     13 C          60.9030   89.3414   11.9947 C.ar    1  UNL1        0.0000
     14 C          60.2690   90.4731   11.2415 C.ar    1  UNL1        0.0000
     15 C          60.9956   91.1109   10.0947 C.ar    1  UNL1        0.0000
     16 C          62.3562   90.6170    9.7010 C.ar    1  UNL1        0.0000
     17 C          62.9901   89.4853   10.4542 C.ar    1  UNL1        0.0000
     18 N          62.7204   85.8230    9.2978 N.am    1  UNL1       -0.3025
     19 C          61.9919   86.0354   10.5917 C.2     1  UNL1        0.2459
     20 O          60.4936   85.9736   10.6277 O.2     1  UNL1       -0.2701
     21 H          63.7038   85.8635    9.2741 H       1  UNL1        0.1497
     22 C          60.6068   86.1811    7.8300 C.3     1  UNL1        0.0213
     23 C          61.9506   85.5487    8.0399 C.3     1  UNL1        0.0720
     24 C          62.5248   84.6419    6.9919 C.3     1  UNL1        0.0213
     25 C          63.8031   89.3960   14.1167 C.3     1  UNL1        0.1109
     26 C          62.6063   90.1150   14.6650 C.3     1  UNL1        0.0278
     27 N          65.1358   90.0831   14.0730 N.pl3   1  UNL1       -0.3142
     28 H          65.8879   89.7325   14.6027 H       1  UNL1        0.1485
     29 C          65.3224   91.3043   13.2223 C.ar    1  UNL1        0.1429
     30 N          64.8378   91.3106   11.8027 N.ar    1  UNL1       -0.2084
     31 C          65.0244   92.5318   10.9519 C.ar    1  UNL1        0.2012
     32 N          65.6957   93.7467   11.5207 N.ar    1  UNL1       -0.2087
     33 C          66.1803   93.7404   12.9402 C.ar    1  UNL1        0.1396
     34 N          66.8515   94.9553   13.5089 N.pl3   1  UNL1       -0.3420
     35 C          65.9937   92.5192   13.7910 C.ar    1  UNL1        0.1308
     36 H          66.9740   95.7568   12.9505 H       1  UNL1        0.1437
     37 H          67.1696   94.9511   14.4406 H       1  UNL1        0.1437
     38 C          66.4783   92.5129   15.2105 C.1     1  UNL1        0.1061
     39 N          66.9629   92.5066   16.6300 N.1     1  UNL1       -0.1906
@<TRIPOS>BOND
     1    22    23    1
     2    23    24    1
     3    23    18    1
     4    18    19   am
     5    19    20    2
     6    19     1    1
     7     1     2   ar
     8     2    12    1
     9    12    13   ar
    10    13    14   ar
    11    14    15   ar
    12    15    16   ar
    13    16    17   ar
    14     2     3   ar
    15     3    25    1
    16    25    26    1
    17    25    27    1
    18    27    29    1
    19    29    30   ar
    20    30    31   ar
    21    31    32   ar
    22    32    33   ar
    23    33    34    1
    24    33    35   ar
    25    35    38    1
    26    38    39    3
    27     3     4   ar
    28     4     5   ar
    29     5     6   ar
    30     6     7   ar
    31     7     8   ar
    32     8     9    1
    33     8    10   ar
    34    10    11   ar
    35    11     1   ar
    36    17    12   ar
    37    35    29   ar
    38    11     5   ar
    39    18    21    1
    40    27    28    1
    41    34    36    1
    42    34    37    1
@<TRIPOS>MOLECULE
*****
 39 42 0 0 0
SMALL
GASTEIGER

@<TRIPOS>ATOM
      1 C          62.4806   95.0837   -3.6199 C.ar    1  UNL1        0.0561
      2 C          60.9846   95.1032   -3.5128 C.ar    1  UNL1        0.0196
      3 C          60.1571   95.6058   -4.6586 C.ar    1  UNL1        0.0768
      4 N          60.8256   96.0889   -5.9114 N.ar    1  UNL1       -0.2480
      5 C          62.3217   96.0694   -6.0185 C.ar    1  UNL1        0.0812
      6 C          62.9903   96.5526   -7.2713 C.ar    1  UNL1        0.0214
      7 C          64.4863   96.5331   -7.3784 C.ar    1  UNL1        0.0312
      8 C          65.3138   96.0305   -6.2327 C.ar    1  UNL1        0.1402
      9 F          66.8099   96.0111   -6.3398 F       1  UNL1       -0.2042
     10 C          64.6452   95.5474   -4.9799 C.ar    1  UNL1        0.0313
     11 C          63.1492   95.5669   -4.8728 C.ar    1  UNL1        0.0243
     12 C          60.3159   94.6201   -2.2600 C.ar    1  UNL1        0.0013
     13 C          59.8641   95.6054   -1.2232 C.ar    1  UNL1        0.0000
     14 C          59.1955   95.1224    0.0296 C.ar    1  UNL1        0.0000
     15 C          58.9788   93.6540    0.2457 C.ar    1  UNL1        0.0000
     16 C          59.4306   92.6686   -0.7911 C.ar    1  UNL1        0.0000
     17 C          60.0992   93.1517   -2.0439 C.ar    1  UNL1        0.0000
     18 N          63.5668   95.4662   -1.2910 N.am    1  UNL1       -0.3025
     19 C          63.3081   94.5812   -2.4742 C.2     1  UNL1        0.2459
     20 O          63.8767   93.1937   -2.5116 O.2     1  UNL1       -0.2701
     21 H          63.1936   96.3768   -1.2664 H       1  UNL1        0.1497
     22 C          65.6906   95.6368    0.1957 C.3     1  UNL1        0.0213
     23 C          64.3943   94.9636   -0.1452 C.3     1  UNL1        0.0720
     24 C          63.9254   93.7878    0.6596 C.3     1  UNL1        0.0213
     25 C          58.6610   95.6252   -4.5514 C.3     1  UNL1        0.1109
     26 C          57.9607   96.8544   -4.0528 C.3     1  UNL1        0.0278
     27 N          57.8653   94.4155   -4.9429 N.pl3   1  UNL1       -0.3142
     28 H          57.8408   94.1256   -5.8835 H       1  UNL1        0.1485
     29 C          57.1069   93.6474   -3.9014 C.ar    1  UNL1        0.1429
     30 N          56.7361   94.3059   -2.6056 N.ar    1  UNL1       -0.2084
     31 C          55.9777   93.5378   -1.5641 C.ar    1  UNL1        0.2012
     32 N          55.5900   92.1112   -1.8182 N.ar    1  UNL1       -0.2087
     33 C          55.9608   91.4528   -3.1139 C.ar    1  UNL1        0.1396
     34 N          55.5731   90.0262   -3.3681 N.pl3   1  UNL1       -0.3420
     35 C          56.7192   92.2208   -4.1556 C.ar    1  UNL1        0.1308
     36 H          55.0753   89.5221   -2.6845 H       1  UNL1        0.1437
     37 H          55.8164   89.5940   -4.2185 H       1  UNL1        0.1437
     38 C          57.0899   91.5623   -5.4513 C.1     1  UNL1        0.1061
     39 N          57.4607   90.9038   -6.7470 N.1     1  UNL1       -0.1906
@<TRIPOS>BOND
     1    22    23    1
     2    23    24    1
     3    23    18    1
     4    18    19   am
     5    19    20    2
     6    19     1    1
     7     1     2   ar
     8     2    12    1
     9    12    13   ar
    10    13    14   ar
    11    14    15   ar
    12    15    16   ar
    13    16    17   ar
    14     2     3   ar
    15     3    25    1
    16    25    26    1
    17    25    27    1
    18    27    29    1
    19    29    30   ar
    20    30    31   ar
    21    31    32   ar
    22    32    33   ar
    23    33    34    1
    24    33    35   ar
    25    35    38    1
    26    38    39    3
    27     3     4   ar
    28     4     5   ar
    29     5     6   ar
    30     6     7   ar
    31     7     8   ar
    32     8     9    1
    33     8    10   ar
    34    10    11   ar
    35    11     1   ar
    36    17    12   ar
    37    35    29   ar
    38    11     5   ar
    39    18    21    1
    40    27    28    1
    41    34    36    1
    42    34    37    1
@<TRIPOS>MOLECULE
*****
 39 42 0 0 0
SMALL
GASTEIGER

@<TRIPOS>ATOM
      1 C          62.6768   94.5735   -2.6363 C.ar    1  UNL1        0.0561
      2 C          61.2537   94.2887   -2.2576 C.ar    1  UNL1        0.0196
      3 C          60.2157   94.1062   -3.3249 C.ar    1  UNL1        0.0768
      4 N          60.6008   94.2085   -4.7710 N.ar    1  UNL1       -0.2480
      5 C          62.0241   94.4933   -5.1498 C.ar    1  UNL1        0.0812
      6 C          62.4093   94.5955   -6.5958 C.ar    1  UNL1        0.0214
      7 C          63.8324   94.8803   -6.9745 C.ar    1  UNL1        0.0312
      8 C          64.8704   95.0628   -5.9071 C.ar    1  UNL1        0.1402
      9 F          66.2937   95.3475   -6.2859 F       1  UNL1       -0.2042
     10 C          64.4852   94.9605   -4.4611 C.ar    1  UNL1        0.0313
     11 C          63.0621   94.6757   -4.0824 C.ar    1  UNL1        0.0243
     12 C          60.8684   94.1864   -0.8115 C.ar    1  UNL1        0.0013
     13 C          60.9372   92.8630   -0.1088 C.ar    1  UNL1        0.0000
     14 C          60.5520   92.7606    1.3372 C.ar    1  UNL1        0.0000
     15 C          60.0980   93.9818    2.0806 C.ar    1  UNL1        0.0000
     16 C          60.0292   95.3052    1.3780 C.ar    1  UNL1        0.0000
     17 C          60.4144   95.4075   -0.0681 C.ar    1  UNL1        0.0000
     18 N          64.0945   96.1360   -1.1200 N.am    1  UNL1       -0.3025
     19 C          63.7148   94.7559   -1.5689 C.2     1  UNL1        0.2459
     20 O          64.3731   93.5584   -0.9504 O.2     1  UNL1       -0.2701
     21 H          63.6624   96.9219   -1.5260 H       1  UNL1        0.1497
     22 C          64.8159   95.9634    1.3699 C.3     1  UNL1        0.0213
     23 C          65.1325   96.3184   -0.0527 C.3     1  UNL1        0.0720
     24 C          66.4871   96.8560   -0.4079 C.3     1  UNL1        0.0213
     25 C          58.7924   93.8215   -2.9462 C.3     1  UNL1        0.1109
     26 C          58.3718   92.4217   -2.6090 C.3     1  UNL1        0.0278
     27 N          57.7899   94.9365   -2.9047 N.pl3   1  UNL1       -0.3142
     28 H          57.8067   95.5862   -2.1652 H       1  UNL1        0.1485
     29 C          56.7619   95.0614   -3.9898 C.ar    1  UNL1        0.1429
     30 N          57.0855   94.6147   -5.3847 N.ar    1  UNL1       -0.2084
     31 C          56.0575   94.7397   -6.4698 C.ar    1  UNL1        0.2012
     32 N          54.7058   95.3114   -6.1600 N.ar    1  UNL1       -0.2087
     33 C          54.3821   95.7581   -4.7652 C.ar    1  UNL1        0.1396
     34 N          53.0303   96.3299   -4.4555 N.pl3   1  UNL1       -0.3420
     35 C          55.4101   95.6332   -3.6800 C.ar    1  UNL1        0.1308
     36 H          52.3556   96.4119   -5.1677 H       1  UNL1        0.1437
     37 H          52.8179   96.6231   -3.5400 H       1  UNL1        0.1437
     38 C          55.0864   96.0799   -2.2852 C.1     1  UNL1        0.1061
     39 N          54.7627   96.5267   -0.8904 N.1     1  UNL1       -0.1906
@<TRIPOS>BOND
     1    22    23    1
     2    23    24    1
     3    23    18    1
     4    18    19   am
     5    19    20    2
     6    19     1    1
     7     1     2   ar
     8     2    12    1
     9    12    13   ar
    10    13    14   ar
    11    14    15   ar
    12    15    16   ar
    13    16    17   ar
    14     2     3   ar
    15     3    25    1
    16    25    26    1
    17    25    27    1
    18    27    29    1
    19    29    30   ar
    20    30    31   ar
    21    31    32   ar
    22    32    33   ar
    23    33    34    1
    24    33    35   ar
    25    35    38    1
    26    38    39    3
    27     3     4   ar
    28     4     5   ar
    29     5     6   ar
    30     6     7   ar
    31     7     8   ar
    32     8     9    1
    33     8    10   ar
    34    10    11   ar
    35    11     1   ar
    36    17    12   ar
    37    35    29   ar
    38    11     5   ar
    39    18    21    1
    40    27    28    1
    41    34    36    1
    42    34    37    1
@<TRIPOS>MOLECULE
*****
 39 42 0 0 0
SMALL
GASTEIGER

@<TRIPOS>ATOM
      1 C          65.1017   91.9540   13.2759 C.ar    1  UNL1        0.0561
      2 C          64.0983   90.8401   13.2281 C.ar    1  UNL1        0.0196
      3 C          63.3136   90.5908   11.9743 C.ar    1  UNL1        0.0768
      4 N          63.5323   91.4553   10.7682 N.ar    1  UNL1       -0.2480
      5 C          64.5358   92.5693   10.8159 C.ar    1  UNL1        0.0812
      6 C          64.7546   93.4338    9.6099 C.ar    1  UNL1        0.0214
      7 C          65.7580   94.5477    9.6576 C.ar    1  UNL1        0.0312
      8 C          66.5427   94.7970   10.9115 C.ar    1  UNL1        0.1402
      9 F          67.5462   95.9110   10.9592 F       1  UNL1       -0.2042
     10 C          66.3240   93.9325   12.1175 C.ar    1  UNL1        0.0313
     11 C          65.3205   92.8186   12.0698 C.ar    1  UNL1        0.0243
     12 C          63.8795   89.9755   14.4343 C.ar    1  UNL1        0.0013
     13 C          64.4656   88.5957   14.4842 C.ar    1  UNL1        0.0000
     14 C          64.2469   87.7311   15.6902 C.ar    1  UNL1        0.0000
     15 C          63.4419   88.2463   16.8463 C.ar    1  UNL1        0.0000
     16 C          62.8558   89.6261   16.7964 C.ar    1  UNL1        0.0000
     17 C          63.0745   90.4907   15.5903 C.ar    1  UNL1        0.0000
     18 N          67.3797   92.3310   14.4670 N.am    1  UNL1       -0.3025
     19 C          65.8864   92.2033   14.5297 C.2     1  UNL1        0.2459
     20 O          65.1779   92.3249   15.8462 O.2     1  UNL1       -0.2701
     21 H          67.8447   92.2512   13.6029 H       1  UNL1        0.1497
     22 C          68.6700   93.9588   16.0276 C.3     1  UNL1        0.0213
     23 C          68.1644   92.5804   15.7208 C.3     1  UNL1        0.0720
     24 C          68.4435   91.4511   16.6680 C.3     1  UNL1        0.0213
     25 C          62.3101   89.4769   11.9266 C.3     1  UNL1        0.1109
     26 C          60.8957   89.7587   11.5139 C.3     1  UNL1        0.0278
     27 N          62.7209   88.0812   12.2916 N.pl3   1  UNL1       -0.3142
     28 H          63.0147   87.8785   13.2091 H       1  UNL1        0.1485
     29 C          62.6841   86.9942   11.2585 C.ar    1  UNL1        0.1429
     30 N          62.4826   87.3400    9.8128 N.ar    1  UNL1       -0.2084
     31 C          62.4458   86.2530    8.7798 C.ar    1  UNL1        0.2012
     32 N          62.6105   84.8203    9.1924 N.ar    1  UNL1       -0.2087
     33 C          62.8119   84.4746   10.6380 C.ar    1  UNL1        0.1396
     34 N          62.9766   83.0418   11.0506 N.pl3   1  UNL1       -0.3420
     35 C          62.8487   85.5615   11.6711 C.ar    1  UNL1        0.1308
     36 H          62.9524   82.3284   10.3726 H       1  UNL1        0.1437
     37 H          63.1088   82.8149   11.9994 H       1  UNL1        0.1437
     38 C          63.0502   85.2158   13.1167 C.1     1  UNL1        0.1061
     39 N          63.2516   84.8700   14.5623 N.1     1  UNL1       -0.1906
@<TRIPOS>BOND
     1    22    23    1
     2    23    24    1
     3    23    18    1
     4    18    19   am
     5    19    20    2
     6    19     1    1
     7     1     2   ar
     8     2    12    1
     9    12    13   ar
    10    13    14   ar
    11    14    15   ar
    12    15    16   ar
    13    16    17   ar
    14     2     3   ar
    15     3    25    1
    16    25    26    1
    17    25    27    1
    18    27    29    1
    19    29    30   ar
    20    30    31   ar
    21    31    32   ar
    22    32    33   ar
    23    33    34    1
    24    33    35   ar
    25    35    38    1
    26    38    39    3
    27     3     4   ar
    28     4     5   ar
    29     5     6   ar
    30     6     7   ar
    31     7     8   ar
    32     8     9    1
    33     8    10   ar
    34    10    11   ar
    35    11     1   ar
    36    17    12   ar
    37    35    29   ar
    38    11     5   ar
    39    18    21    1
    40    27    28    1
    41    34    36    1
    42    34    37    1
@<TRIPOS>MOLECULE
*****
 39 42 0 0 0
SMALL
GASTEIGER

@<TRIPOS>ATOM
      1 C          63.1851   84.8197   11.8707 C.ar    1  UNL1        0.0561
      2 C          62.7170   85.9898   11.0573 C.ar    1  UNL1        0.0196
      3 C          62.7546   87.3714   11.6402 C.ar    1  UNL1        0.0768
      4 N          63.2604   87.5829   13.0364 N.ar    1  UNL1       -0.2480
      5 C          63.7285   86.4127   13.8498 C.ar    1  UNL1        0.0812
      6 C          64.2342   86.6242   15.2461 C.ar    1  UNL1        0.0214
      7 C          64.7023   85.4540   16.0594 C.ar    1  UNL1        0.0312
      8 C          64.6647   84.0724   15.4765 C.ar    1  UNL1        0.1402
      9 F          65.1328   82.9022   16.2900 F       1  UNL1       -0.2042
     10 C          64.1589   83.8609   14.0803 C.ar    1  UNL1        0.0313
     11 C          63.6909   85.0311   13.2670 C.ar    1  UNL1        0.0243
     12 C          62.2112   85.7784    9.6610 C.ar    1  UNL1        0.0013
     13 C          60.7562   85.9733    9.3529 C.ar    1  UNL1        0.0000
     14 C          60.2504   85.7619    7.9566 C.ar    1  UNL1        0.0000
     15 C          61.1996   85.3556    6.8686 C.ar    1  UNL1        0.0000
     16 C          62.6547   85.1607    7.1768 C.ar    1  UNL1        0.0000
     17 C          63.1604   85.3721    8.5730 C.ar    1  UNL1        0.0000
     18 N          62.6820   82.2834   12.1247 N.am    1  UNL1       -0.3025
     19 C          63.1474   83.4381   11.2878 C.2     1  UNL1        0.2459
     20 O          63.5752   83.2110    9.8682 O.2     1  UNL1       -0.2701
     21 H          62.4013   82.4324   13.0565 H       1  UNL1        0.1497
     22 C          62.4034   79.7187   12.4318 C.3     1  UNL1        0.0213
     23 C          62.6444   80.9018   11.5418 C.3     1  UNL1        0.0720
     24 C          62.8477   80.7034   10.0689 C.3     1  UNL1        0.0213
     25 C          62.2865   88.5416   10.8267 C.3     1  UNL1        0.1109
     26 C          62.0029   88.3724    9.3635 C.3     1  UNL1        0.0278
     27 N          62.1020   89.8809   11.4765 N.pl3   1  UNL1       -0.3142
     28 H          61.2166   90.1456   11.8158 H       1  UNL1        0.1485
     29 C          63.2666   90.8168   11.6094 C.ar    1  UNL1        0.1429
     30 N          63.8424   91.4754   10.3908 N.ar    1  UNL1       -0.2084
     31 C          65.0070   92.4113   10.5236 C.ar    1  UNL1        0.2012
     32 N          65.5959   92.6887   11.8750 N.ar    1  UNL1       -0.2087
     33 C          65.0202   92.0302   13.0936 C.ar    1  UNL1        0.1396
     34 N          65.6091   92.3076   14.4450 N.pl3   1  UNL1       -0.3420
     35 C          63.8555   91.0942   12.9608 C.ar    1  UNL1        0.1308
     36 H          66.3735   92.9219   14.5322 H       1  UNL1        0.1437
     37 H          65.2312   91.8754   15.2447 H       1  UNL1        0.1437
     38 C          63.2798   90.4357   14.1793 C.1     1  UNL1        0.1061
     39 N          62.7041   89.7772   15.3978 N.1     1  UNL1       -0.1906
@<TRIPOS>BOND
     1    22    23    1
     2    23    24    1
     3    23    18    1
     4    18    19   am
     5    19    20    2
     6    19     1    1
     7     1     2   ar
     8     2    12    1
     9    12    13   ar
    10    13    14   ar
    11    14    15   ar
    12    15    16   ar
    13    16    17   ar
    14     2     3   ar
    15     3    25    1
    16    25    26    1
    17    25    27    1
    18    27    29    1
    19    29    30   ar
    20    30    31   ar
    21    31    32   ar
    22    32    33   ar
    23    33    34    1
    24    33    35   ar
    25    35    38    1
    26    38    39    3
    27     3     4   ar
    28     4     5   ar
    29     5     6   ar
    30     6     7   ar
    31     7     8   ar
    32     8     9    1
    33     8    10   ar
    34    10    11   ar
    35    11     1   ar
    36    17    12   ar
    37    35    29   ar
    38    11     5   ar
    39    18    21    1
    40    27    28    1
    41    34    36    1
    42    34    37    1
@<TRIPOS>MOLECULE
*****
 39 42 0 0 0
SMALL
GASTEIGER

@<TRIPOS>ATOM
      1 C          61.8694   95.1102   -3.4929 C.ar    1  UNL1        0.0561
      2 C          60.4064   95.2108   -3.1777 C.ar    1  UNL1        0.0196
      3 C          59.4716   95.8597   -4.1549 C.ar    1  UNL1        0.0768
      4 N          59.9998   96.4081   -5.4473 N.ar    1  UNL1       -0.2480
      5 C          61.4629   96.3075   -5.7625 C.ar    1  UNL1        0.0812
      6 C          61.9911   96.8559   -7.0549 C.ar    1  UNL1        0.0214
      7 C          63.4542   96.7553   -7.3700 C.ar    1  UNL1        0.0312
      8 C          64.3890   96.1064   -6.3928 C.ar    1  UNL1        0.1402
      9 F          65.8521   96.0058   -6.7080 F       1  UNL1       -0.2042
     10 C          63.8608   95.5580   -5.1004 C.ar    1  UNL1        0.0313
     11 C          62.3977   95.6586   -4.7853 C.ar    1  UNL1        0.0243
     12 C          59.8781   94.6624   -1.8853 C.ar    1  UNL1        0.0013
     13 C          59.8651   95.5213   -0.6557 C.ar    1  UNL1        0.0000
     14 C          59.3369   94.9730    0.6367 C.ar    1  UNL1        0.0000
     15 C          58.8216   93.5657    0.6994 C.ar    1  UNL1        0.0000
     16 C          58.8347   92.7067   -0.5302 C.ar    1  UNL1        0.0000
     17 C          59.3629   93.2551   -1.8226 C.ar    1  UNL1        0.0000
     18 N          63.0751   95.1118   -1.1914 N.am    1  UNL1       -0.3025
     19 C          62.8043   94.4612   -2.5157 C.2     1  UNL1        0.2459
     20 O          63.4683   93.1617   -2.8626 O.2     1  UNL1       -0.2701
     21 H          62.6393   95.9647   -0.9637 H       1  UNL1        0.1497
     22 C          63.5402   93.3074    0.6190 C.3     1  UNL1        0.0213
     23 C          64.0099   94.4628   -0.2142 C.3     1  UNL1        0.0720
     24 C          65.4145   94.9693   -0.0703 C.3     1  UNL1        0.0213
     25 C          58.0085   95.9603   -3.8397 C.3     1  UNL1        0.1109
     26 C          57.5589   96.6115   -2.5654 C.3     1  UNL1        0.0278
     27 N          56.9951   95.4097   -4.7988 N.pl3   1  UNL1       -0.3142
     28 H          56.3095   96.0019   -5.1842 H       1  UNL1        0.1485
     29 C          57.0263   93.9569   -5.1707 C.ar    1  UNL1        0.1429
     30 N          57.5702   93.5354   -6.5036 N.ar    1  UNL1       -0.2084
     31 C          57.6013   92.0826   -6.8754 C.ar    1  UNL1        0.2012
     32 N          57.0886   91.0513   -5.9144 N.ar    1  UNL1       -0.2087
     33 C          56.5448   91.4727   -4.5816 C.ar    1  UNL1        0.1396
     34 N          56.0321   90.4414   -3.6206 N.pl3   1  UNL1       -0.3420
     35 C          56.5136   92.9256   -4.2097 C.ar    1  UNL1        0.1308
     36 H          56.0526   89.4878   -3.8647 H       1  UNL1        0.1437
     37 H          55.6751   90.7180   -2.7458 H       1  UNL1        0.1437
     38 C          55.9697   93.3471   -2.8768 C.1     1  UNL1        0.1061
     39 N          55.4258   93.7685   -1.5440 N.1     1  UNL1       -0.1906
@<TRIPOS>BOND
     1    22    23    1
     2    23    24    1
     3    23    18    1
     4    18    19   am
     5    19    20    2
     6    19     1    1
     7     1     2   ar
     8     2    12    1
     9    12    13   ar
    10    13    14   ar
    11    14    15   ar
    12    15    16   ar
    13    16    17   ar
    14     2     3   ar
    15     3    25    1
    16    25    26    1
    17    25    27    1
    18    27    29    1
    19    29    30   ar
    20    30    31   ar
    21    31    32   ar
    22    32    33   ar
    23    33    34    1
    24    33    35   ar
    25    35    38    1
    26    38    39    3
    27     3     4   ar
    28     4     5   ar
    29     5     6   ar
    30     6     7   ar
    31     7     8   ar
    32     8     9    1
    33     8    10   ar
    34    10    11   ar
    35    11     1   ar
    36    17    12   ar
    37    35    29   ar
    38    11     5   ar
    39    18    21    1
    40    27    28    1
    41    34    36    1
    42    34    37    1
@<TRIPOS>MOLECULE
*****
 39 42 0 0 0
SMALL
GASTEIGER

@<TRIPOS>ATOM
      1 C          63.9572   91.2241   11.8299 C.ar    1  UNL1        0.0561
      2 C          64.2745   91.0454   13.2850 C.ar    1  UNL1        0.0196
      3 C          63.3777   90.2116   14.1513 C.ar    1  UNL1        0.0768
      4 N          62.1635   89.5566   13.5626 N.ar    1  UNL1       -0.2480
      5 C          61.8462   89.7353   12.1074 C.ar    1  UNL1        0.0812
      6 C          60.6320   89.0802   11.5186 C.ar    1  UNL1        0.0214
      7 C          60.3147   89.2590   10.0635 C.ar    1  UNL1        0.0312
      8 C          61.2116   90.0927    9.1972 C.ar    1  UNL1        0.1402
      9 F          60.8943   90.2714    7.7420 F       1  UNL1       -0.2042
     10 C          62.4257   90.7478    9.7860 C.ar    1  UNL1        0.0313
     11 C          62.7430   90.5691   11.2411 C.ar    1  UNL1        0.0243
     12 C          65.4887   91.7005   13.8739 C.ar    1  UNL1        0.0013
     13 C          65.6391   93.1918   13.8154 C.ar    1  UNL1        0.0000
     14 C          66.8532   93.8468   14.4042 C.ar    1  UNL1        0.0000
     15 C          67.9170   93.0106   15.0515 C.ar    1  UNL1        0.0000
     16 C          67.7666   91.5193   15.1100 C.ar    1  UNL1        0.0000
     17 C          66.5525   90.8642   14.5212 C.ar    1  UNL1        0.0000
     18 N          66.3406   91.8636   11.0170 N.am    1  UNL1       -0.3025
     19 C          64.8541   92.0579   10.9636 C.2     1  UNL1        0.2459
     20 O          64.2646   93.0858   10.0441 O.2     1  UNL1       -0.2701
     21 H          66.7275   91.1889   11.6205 H       1  UNL1        0.1497
     22 C          68.2982   92.0406    9.3181 C.3     1  UNL1        0.0213
     23 C          67.2374   92.6974   10.1507 C.3     1  UNL1        0.0720
     24 C          67.0735   94.1881   10.1170 C.3     1  UNL1        0.0213
     25 C          63.6950   90.0329   15.6065 C.3     1  UNL1        0.1109
     26 C          63.4789   91.1656   16.5659 C.3     1  UNL1        0.0278
     27 N          64.2285   88.7216   16.1023 N.pl3   1  UNL1       -0.3142
     28 H          64.8092   88.6952   16.8968 H       1  UNL1        0.1485
     29 C          63.8771   87.4506   15.3875 C.ar    1  UNL1        0.1429
     30 N          64.1885   87.3002   13.9279 N.ar    1  UNL1       -0.2084
     31 C          63.8371   86.0292   13.2131 C.ar    1  UNL1        0.2012
     32 N          63.1743   84.9085   13.9578 N.ar    1  UNL1       -0.2087
     33 C          62.8628   85.0588   15.4174 C.ar    1  UNL1        0.1396
     34 N          62.2000   83.9381   16.1621 N.pl3   1  UNL1       -0.3420
     35 C          63.2142   86.3299   16.1322 C.ar    1  UNL1        0.1308
     36 H          61.9693   83.1039   15.6930 H       1  UNL1        0.1437
     37 H          61.9955   84.0368   17.1201 H       1  UNL1        0.1437
     38 C          62.9027   86.4802   17.5918 C.1     1  UNL1        0.1061
     39 N          62.5913   86.6306   19.0514 N.1     1  UNL1       -0.1906
@<TRIPOS>BOND
     1    22    23    1
     2    23    24    1
     3    23    18    1
     4    18    19   am
     5    19    20    2
     6    19     1    1
     7     1     2   ar
     8     2    12    1
     9    12    13   ar
    10    13    14   ar
    11    14    15   ar
    12    15    16   ar
    13    16    17   ar
    14     2     3   ar
    15     3    25    1
    16    25    26    1
    17    25    27    1
    18    27    29    1
    19    29    30   ar
    20    30    31   ar
    21    31    32   ar
    22    32    33   ar
    23    33    34    1
    24    33    35   ar
    25    35    38    1
    26    38    39    3
    27     3     4   ar
    28     4     5   ar
    29     5     6   ar
    30     6     7   ar
    31     7     8   ar
    32     8     9    1
    33     8    10   ar
    34    10    11   ar
    35    11     1   ar
    36    17    12   ar
    37    35    29   ar
    38    11     5   ar
    39    18    21    1
    40    27    28    1
    41    34    36    1
    42    34    37    1
