@<TRIPOS>MOLECULE
*****
 61 64 0 0 0
SMALL
GASTEIGER

@<TRIPOS>ATOM
      1 C          61.2531   92.1282    3.6293 C.3     1  UNL1        0.1953
      2 O          60.7606   91.2555    4.7455 O.3     1  UNL1       -0.4497
      3 C          60.7171   90.7118    6.1427 C.2     1  UNL1        0.3188
      4 O          59.6191   89.6943    6.0476 O.2     1  UNL1       -0.2500
      5 C          61.1303   90.5913    7.5797 C.3     1  UNL1        0.1263
      6 C          60.1865   89.6364    7.7217 C.3     1  UNL1        0.0142
      7 C          61.9285   90.9148    8.8078 C.3     1  UNL1        0.1306
      8 C          62.9739   91.6262    9.6148 C.3     1  UNL1        0.0575
      9 C          62.8143   90.9888   10.9633 C.3     1  UNL1        0.0051
     10 C          64.0856   92.6027    9.8609 C.3     1  UNL1        0.1448
     11 C          65.0714   93.6753    9.5038 C.3     1  UNL1        0.1194
     12 C          66.1411   94.4410   10.2244 C.3     1  UNL1        0.0322
     13 C          65.7610   94.6586    8.6051 C.3     1  UNL1        0.0492
     14 C          66.0349   95.3826    7.3203 C.3     1  UNL1        0.0740
     15 C          67.1482   96.3073    7.7146 C.3     1  UNL1        0.0213
     16 N          65.8460   95.7221    5.8715 N.am    1  UNL1       -0.3058
     17 C          65.2268   95.6184    4.5092 C.2     1  UNL1        0.2244
     18 O          66.0040   96.6411    3.7347 O.2     1  UNL1       -0.2750
     19 C          64.2844   95.0894    3.4690 C.3     1  UNL1        0.1057
     20 C          64.6697   95.8922    2.2619 C.3     1  UNL1        0.0122
     21 C          63.1817   94.2265    2.9307 C.3     1  UNL1        0.1468
     22 O          63.1086   94.6706    1.4997 O.3     1  UNL1       -0.3815
     23 C          62.1095   93.1791    2.9874 C.3     1  UNL1        0.1498
     24 C          61.1280   92.5863    2.0205 C.3     1  UNL1        0.0356
     25 O          62.2305   93.7860    1.6210 O.3     1  UNL1       -0.3808
     26 H          66.5251   96.4217    5.7349 H       1  UNL1        0.1494
     27 H          63.7706   95.3616    1.3414 H       1  UNL1        0.2105
     28 H          62.9319   94.4561    1.6257 H       1  UNL1        0.2105
     29 C          59.4030   92.6675    1.8869 C.3     1  UNL1        0.0039
     30 C          60.3780   91.6996    2.4889 C.3     1  UNL1        0.0462
     31 O          65.1834   93.2656   10.9424 O.3     1  UNL1       -0.3534
     32 C          65.3852   93.9244   11.3433 C.3     1  UNL1        0.1740
     33 O          61.3342   89.9816    9.8208 O.3     1  UNL1       -0.3323
     34 C          61.7481   88.5400    9.8462 C.3     1  UNL1        0.2375
     35 C          62.2861   87.9363   11.1096 C.3     1  UNL1        0.0910
     36 C          62.6999   86.4947   11.1350 C.3     1  UNL1        0.1246
     37 C          63.2195   85.1863   11.6528 C.3     1  UNL1        0.0324
     38 C          62.5758   85.6569    9.8970 C.3     1  UNL1        0.1623
     39 O          62.9896   84.2154    9.9224 O.3     1  UNL1       -0.3796
     40 C          62.0379   86.2606    8.6336 C.3     1  UNL1        0.1468
     41 C          61.9138   85.4228    7.3957 C.3     1  UNL1        0.0348
     42 O          61.6240   87.7021    8.6082 O.3     1  UNL1       -0.3304
     43 H          62.8458   83.8223    9.0474 H       1  UNL1        0.2105
     44 O          63.0044   86.8782   12.5528 O.3     1  UNL1       -0.3532
     45 C          63.5207   85.8486   13.5138 C.3     1  UNL1        0.1740
     46 O          64.3883   92.3714   11.3117 O.3     1  UNL1       -0.3278
     47 C          65.8102   92.2302   11.7679 C.3     1  UNL1        0.2785
     48 O          66.9108   92.0866   10.7590 O.3     1  UNL1       -0.3302
     49 C          68.3328   91.9454   11.2152 C.3     1  UNL1        0.1198
     50 C          69.4334   91.8018   10.2063 C.3     1  UNL1        0.0322
     51 C          68.6540   91.9479   12.6804 C.3     1  UNL1        0.0534
     52 C          67.5534   92.0916   13.6894 C.3     1  UNL1        0.1245
     53 C          66.1315   92.2327   13.2331 C.3     1  UNL1        0.2426
     54 O          65.2641   92.3566   14.4507 O.2     1  UNL1       -0.4466
     55 C          66.1501   92.2920   15.6594 C.2     1  UNL1        0.2833
     56 N          65.7002   92.3764   17.0878 N.2     1  UNL1       -0.2263
     57 N          67.5649   92.1282   15.1889 N.pl3   1  UNL1       -0.2603
     58 C          68.7782   92.0201   16.0642 C.3     1  UNL1        0.1166
     59 C          64.2437   92.5408   17.4070 C.3     1  UNL1        0.1078
     60 C          63.7506   93.8155   18.0250 C.3     1  UNL1        0.0264
     61 C          63.2804   91.4305   17.1080 C.3     1  UNL1        0.0264
@<TRIPOS>BOND
     1    29    30    1
     2     1    30    1
     3     1     2    1
     4     2     3    1
     5     3     4    2
     6     3     5    1
     7     5     6    1
     8     5     7    1
     9     7    33    1
    10    34    33    1
    11    34    35    1
    12    35    36    1
    13    36    37    1
    14    36    44    1
    15    44    45    1
    16    36    38    1
    17    38    39    1
    18    38    40    1
    19    40    41    1
    20    40    42    1
    21     7     8    1
    22     8     9    1
    23     8    10    1
    24    10    46    1
    25    47    46    1
    26    47    48    1
    27    48    49    1
    28    49    50    1
    29    49    51    1
    30    52    51    1
    31    52    53    1
    32    53    54    1
    33    54    55    1
    34    55    56    2
    35    56    59    1
    36    59    60    1
    37    59    61    1
    38    55    57    1
    39    57    58    1
    40    10    11    1
    41    11    12    1
    42    11    31    1
    43    31    32    1
    44    11    13    1
    45    13    14    1
    46    14    15    1
    47    14    16    1
    48    16    17   am
    49    17    18    2
    50    17    19    1
    51    19    20    1
    52    19    21    1
    53    21    22    1
    54    21    23    1
    55    23    24    1
    56    23    25    1
    57    23     1    1
    58    42    34    1
    59    53    47    1
    60    57    52    1
    61    39    43    1
    62    16    26    1
    63    22    27    1
    64    25    28    1
@<TRIPOS>MOLECULE
*****
 61 64 0 0 0
SMALL
GASTEIGER

@<TRIPOS>ATOM
      1 C          63.1734   82.6610   10.4106 C.3     1  UNL1        0.1953
      2 O          62.9338   83.8555    9.5356 O.3     1  UNL1       -0.4497
      3 C          62.7562   85.3118    9.2232 C.2     1  UNL1        0.3188
      4 O          62.5331   85.2878    7.7401 O.2     1  UNL1       -0.2500
      5 C          62.6714   86.7782    9.5277 C.3     1  UNL1        0.1263
      6 C          62.4528   86.9903    8.2124 C.3     1  UNL1        0.0142
      7 C          62.6941   88.0010   10.3962 C.3     1  UNL1        0.1306
      8 C          62.8202   88.7688   11.6785 C.3     1  UNL1        0.0575
      9 C          62.6237   90.1823   11.2163 C.3     1  UNL1        0.0051
     10 C          63.0280   88.9489   13.1531 C.3     1  UNL1        0.1448
     11 C          63.2816   88.5101   14.5649 C.3     1  UNL1        0.1194
     12 C          63.4233   89.1866   15.8961 C.3     1  UNL1        0.0322
     13 C          63.5371   87.5283   15.6698 C.3     1  UNL1        0.0492
     14 C          63.7503   86.1733   16.2767 C.3     1  UNL1        0.0740
     15 C          63.9406   86.5074   17.7266 C.3     1  UNL1        0.0213
     16 N          63.8844   84.6793   16.2808 N.am    1  UNL1       -0.3058
     17 C          63.9162   83.3047   15.6812 C.2     1  UNL1        0.2244
     18 O          64.1755   82.4460   16.8835 O.2     1  UNL1       -0.2750
     19 C          63.8402   82.2872   14.5818 C.3     1  UNL1        0.1057
     20 C          64.0678   81.0054   15.3269 C.3     1  UNL1        0.0122
     21 C          63.6694   81.8026   13.1724 C.3     1  UNL1        0.1468
     22 O          63.8261   80.3192   13.3316 O.3     1  UNL1       -0.3815
     23 C          63.4336   81.9349   11.6971 C.3     1  UNL1        0.1498
     24 C          63.3404   80.9961   10.5308 C.3     1  UNL1        0.0356
     25 O          63.6240   80.5053   12.1098 O.3     1  UNL1       -0.3808
     26 H          64.0459   84.4909   17.2335 H       1  UNL1        0.1494
     27 H          63.9866   80.1093   14.2649 H       1  UNL1        0.2105
     28 H          63.7732   80.4624   13.0673 H       1  UNL1        0.2105
     29 C          62.7581   80.1527    9.8757 C.3     1  UNL1        0.0039
     30 C          63.1238   81.5346    9.4212 C.3     1  UNL1        0.0462
     31 O          63.1323   89.9988   14.4574 O.3     1  UNL1       -0.3534
     32 C          62.5041   90.1898   14.9094 C.3     1  UNL1        0.1740
     33 O          62.4451   89.0952    9.4007 O.3     1  UNL1       -0.3323
     34 C          61.2160   89.0620    8.5414 C.3     1  UNL1        0.2375
     35 C          61.0272   90.0871    7.4628 C.3     1  UNL1        0.0910
     36 C          59.7981   90.0540    6.6035 C.3     1  UNL1        0.1246
     37 C          58.8113   90.4342    5.5398 C.3     1  UNL1        0.0324
     38 C          58.7580   88.9957    6.8229 C.3     1  UNL1        0.1623
     39 O          57.5290   88.9626    5.9636 O.3     1  UNL1       -0.3796
     40 C          58.9469   87.9706    7.9015 C.3     1  UNL1        0.1468
     41 C          57.9067   86.9124    8.1209 C.3     1  UNL1        0.0348
     42 O          60.1759   88.0037    8.7608 O.3     1  UNL1       -0.3304
     43 H          56.9644   88.2221    6.2353 H       1  UNL1        0.2105
     44 O          60.4956   91.2443    6.0147 O.3     1  UNL1       -0.3532
     45 C          59.9495   91.8988    4.7805 C.3     1  UNL1        0.1740
     46 O          62.9180   90.4372   13.3041 O.3     1  UNL1       -0.3278
     47 C          63.8569   91.1700   14.2159 C.3     1  UNL1        0.2785
     48 O          63.5150   91.3378   15.6668 O.3     1  UNL1       -0.3302
     49 C          64.4539   92.0706   16.5786 C.3     1  UNL1        0.1198
     50 C          64.1121   92.2384   18.0295 C.3     1  UNL1        0.0322
     51 C          65.7346   92.6356   16.0396 C.3     1  UNL1        0.0534
     52 C          66.0765   92.4678   14.5888 C.3     1  UNL1        0.1245
     53 C          65.1376   91.7350   13.6769 C.3     1  UNL1        0.2426
     54 O          65.7384   91.7266   12.3025 O.2     1  UNL1       -0.4466
     55 C          67.0487   92.4543   12.3650 C.2     1  UNL1        0.2833
     56 N          67.9854   92.6836   11.2162 N.2     1  UNL1       -0.2263
     57 N          67.2576   92.9123   13.7780 N.pl3   1  UNL1       -0.2603
     58 C          68.4400   93.6801   14.2902 C.3     1  UNL1        0.1166
     59 C          67.6407   92.1636    9.8520 C.3     1  UNL1        0.1078
     60 C          68.7299   91.8777    8.8611 C.3     1  UNL1        0.0264
     61 C          66.2068   91.9295    9.4788 C.3     1  UNL1        0.0264
@<TRIPOS>BOND
     1    29    30    1
     2     1    30    1
     3     1     2    1
     4     2     3    1
     5     3     4    2
     6     3     5    1
     7     5     6    1
     8     5     7    1
     9     7    33    1
    10    34    33    1
    11    34    35    1
    12    35    36    1
    13    36    37    1
    14    36    44    1
    15    44    45    1
    16    36    38    1
    17    38    39    1
    18    38    40    1
    19    40    41    1
    20    40    42    1
    21     7     8    1
    22     8     9    1
    23     8    10    1
    24    10    46    1
    25    47    46    1
    26    47    48    1
    27    48    49    1
    28    49    50    1
    29    49    51    1
    30    52    51    1
    31    52    53    1
    32    53    54    1
    33    54    55    1
    34    55    56    2
    35    56    59    1
    36    59    60    1
    37    59    61    1
    38    55    57    1
    39    57    58    1
    40    10    11    1
    41    11    12    1
    42    11    31    1
    43    31    32    1
    44    11    13    1
    45    13    14    1
    46    14    15    1
    47    14    16    1
    48    16    17   am
    49    17    18    2
    50    17    19    1
    51    19    20    1
    52    19    21    1
    53    21    22    1
    54    21    23    1
    55    23    24    1
    56    23    25    1
    57    23     1    1
    58    42    34    1
    59    53    47    1
    60    57    52    1
    61    39    43    1
    62    16    26    1
    63    22    27    1
    64    25    28    1
