@<TRIPOS>MOLECULE
*****
 28 32 0 0 0
SMALL
GASTEIGER

@<TRIPOS>ATOM
      1 N          63.7541   90.5101   12.9117 N.ar    1  UNL1       -0.3085
      2 C          64.4656   89.9608   14.1125 C.ar    1  UNL1        0.1215
      3 N          65.7551   90.7106   14.2703 N.ar    1  UNL1       -0.2309
      4 C          65.8406   91.7233   13.1670 C.ar    1  UNL1        0.0983
      5 C          66.8847   92.7422   12.8185 C.ar    1  UNL1        0.0206
      6 C          66.6921   93.6372   11.6303 C.ar    1  UNL1        0.0016
      7 C          65.4553   93.5132   10.7906 C.ar    1  UNL1        0.0016
      8 C          64.4112   92.4943   11.1391 C.ar    1  UNL1        0.0188
      9 C          64.6038   91.5993   12.3273 C.ar    1  UNL1        0.0789
     10 C          63.9740   88.8558   14.9998 C.3     1  UNL1        0.0729
     11 C          63.4741   89.1677   16.3791 C.3     1  UNL1        0.0103
     12 C          62.9824   88.0627   17.2664 C.3     1  UNL1        0.0178
     13 C          62.9907   86.6458   16.7743 C.3     1  UNL1        0.0721
     14 N          63.4906   86.3339   15.3949 N.3     1  UNL1       -0.2734
     15 C          63.9822   87.4389   14.5076 C.3     1  UNL1        0.0795
     16 C          63.4989   84.9169   14.9027 C.3     1  UNL1        0.0625
     17 C          64.6030   84.4409   14.0058 C.3     1  UNL1        0.0481
     18 C          64.6113   83.0241   13.5136 C.3     1  UNL1        0.1435
     19 O          63.5155   82.0830   13.9182 O.3     1  UNL1       -0.3537
     20 C          62.4113   82.5590   14.8151 C.3     1  UNL1        0.1435
     21 C          62.4031   83.9760   15.3073 C.3     1  UNL1        0.0481
     22 C          62.4259   90.0507   12.3872 C.3     1  UNL1        0.1596
     23 C          62.4177   85.0206   10.7814 C.3     1  UNL1        0.0527
     24 C          62.3400   86.5187   10.7803 C.ar    1  UNL1        0.0661
     25 C          62.0948   87.3880    9.5828 C.ar    1  UNL1        0.0513
     26 S          62.0971   88.8169   10.0390 S.2     1  UNL1       -0.0687
     27 C          62.3438   88.8308   11.5185 C.ar    1  UNL1        0.1108
     28 N          62.4939   87.4104   11.9767 N.ar    1  UNL1       -0.2450
@<TRIPOS>BOND
     1    23    24    1
     2    24    25   ar
     3    25    26   ar
     4    26    27   ar
     5    27    22    1
     6    22     1    1
     7     1     2   ar
     8     2    10    1
     9    10    11    1
    10    11    12    1
    11    12    13    1
    12    13    14    1
    13    14    16    1
    14    16    17    1
    15    17    18    1
    16    18    19    1
    17    19    20    1
    18    20    21    1
    19    14    15    1
    20     2     3   ar
    21     3     4   ar
    22     4     5   ar
    23     5     6   ar
    24     6     7   ar
    25     7     8   ar
    26     8     9   ar
    27    27    28   ar
    28    28    24   ar
    29     9     1   ar
    30    15    10    1
    31     9     4   ar
    32    21    16    1
@<TRIPOS>MOLECULE
*****
 28 32 0 0 0
SMALL
GASTEIGER

@<TRIPOS>ATOM
      1 N          64.0668   90.2600   12.7101 N.ar    1  UNL1       -0.3085
      2 C          64.4156   90.0419   14.1526 C.ar    1  UNL1        0.1215
      3 N          65.3107   91.1642   14.5878 N.ar    1  UNL1       -0.2309
      4 C          65.5152   92.0758   13.4142 C.ar    1  UNL1        0.0983
      5 C          66.3020   93.3425   13.2524 C.ar    1  UNL1        0.0206
      6 C          66.3201   94.0504   11.9301 C.ar    1  UNL1        0.0016
      7 C          65.5513   93.4916   10.7696 C.ar    1  UNL1        0.0016
      8 C          64.7645   92.2248   10.9315 C.ar    1  UNL1        0.0188
      9 C          64.7464   91.5169   12.2537 C.ar    1  UNL1        0.0789
     10 C          63.9508   88.9019   15.0095 C.3     1  UNL1        0.0729
     11 C          63.4645   89.1618   16.4044 C.3     1  UNL1        0.0103
     12 C          62.9997   88.0217   17.2613 C.3     1  UNL1        0.0178
     13 C          63.0213   86.6217   16.7232 C.3     1  UNL1        0.0721
     14 N          63.5076   86.3618   15.3283 N.3     1  UNL1       -0.2734
     15 C          63.9724   87.5019   14.4714 C.3     1  UNL1        0.0795
     16 C          63.5292   84.9618   14.7902 C.3     1  UNL1        0.0625
     17 C          64.6534   84.5168   13.9024 C.3     1  UNL1        0.0481
     18 C          64.6751   83.1169   13.3643 C.3     1  UNL1        0.1435
     19 O          63.5725   82.1618   13.7139 O.3     1  UNL1       -0.3537
     20 C          62.4483   82.6068   14.6018 C.3     1  UNL1        0.1435
     21 C          62.4267   84.0068   15.1399 C.3     1  UNL1        0.0481
     22 C          63.1920   89.3762   11.8712 C.3     1  UNL1        0.1596
     23 C          58.0044   89.0253   12.7912 C.3     1  UNL1        0.0527
     24 C          59.3288   89.4599   12.2368 C.ar    1  UNL1        0.0661
     25 C          59.5466   90.5362   11.2151 C.ar    1  UNL1        0.0513
     26 S          61.0203   90.6359   10.9538 S.2     1  UNL1       -0.0687
     27 C          61.7133   89.6212   11.8140 C.ar    1  UNL1        0.1108
     28 N          60.6680   88.8943   12.6070 N.ar    1  UNL1       -0.2450
@<TRIPOS>BOND
     1    23    24    1
     2    24    25   ar
     3    25    26   ar
     4    26    27   ar
     5    27    22    1
     6    22     1    1
     7     1     2   ar
     8     2    10    1
     9    10    11    1
    10    11    12    1
    11    12    13    1
    12    13    14    1
    13    14    16    1
    14    16    17    1
    15    17    18    1
    16    18    19    1
    17    19    20    1
    18    20    21    1
    19    14    15    1
    20     2     3   ar
    21     3     4   ar
    22     4     5   ar
    23     5     6   ar
    24     6     7   ar
    25     7     8   ar
    26     8     9   ar
    27    27    28   ar
    28    28    24   ar
    29     9     1   ar
    30    15    10    1
    31     9     4   ar
    32    21    16    1
@<TRIPOS>MOLECULE
*****
 28 32 0 0 0
SMALL
GASTEIGER

@<TRIPOS>ATOM
      1 N          63.9539   90.6269   14.5533 N.ar    1  UNL1       -0.3085
      2 C          63.6935   90.5567   13.0777 C.ar    1  UNL1        0.1215
      3 N          64.6272   91.5127   12.3964 N.ar    1  UNL1       -0.2309
      4 C          65.4647   92.1736   13.4508 C.ar    1  UNL1        0.0983
      5 C          66.5525   93.2032   13.3693 C.ar    1  UNL1        0.0206
      6 C          67.2241   93.6854   14.6208 C.ar    1  UNL1        0.0016
      7 C          66.8080   93.1378   15.9539 C.ar    1  UNL1        0.0016
      8 C          65.7202   92.1082   16.0354 C.ar    1  UNL1        0.0188
      9 C          65.0486   91.6261   14.7838 C.ar    1  UNL1        0.0789
     10 C          62.6777   89.6839   12.4022 C.3     1  UNL1        0.0729
     11 C          61.2736   90.1761   12.2123 C.3     1  UNL1        0.0103
     12 C          60.2578   89.3033   11.5367 C.3     1  UNL1        0.0178
     13 C          60.6461   87.9383   11.0511 C.3     1  UNL1        0.0721
     14 N          62.0503   87.4461   11.2410 N.3     1  UNL1       -0.2734
     15 C          63.0661   88.3189   11.9165 C.3     1  UNL1        0.0795
     16 C          62.4387   86.0811   10.7553 C.3     1  UNL1        0.0625
     17 C          62.6672   85.8425    9.2921 C.3     1  UNL1        0.0481
     18 C          63.0556   84.4775    8.8064 C.3     1  UNL1        0.1435
     19 O          63.2155   83.3510    9.7839 O.3     1  UNL1       -0.3537
     20 C          62.9870   83.5895   11.2471 C.3     1  UNL1        0.1435
     21 C          62.5986   84.9546   11.7328 C.3     1  UNL1        0.0481
     22 C          63.2443   89.8364   15.6124 C.3     1  UNL1        0.1596
     23 C          64.9411   84.9272   14.6635 C.3     1  UNL1        0.0527
     24 C          64.2762   86.1071   15.3083 C.ar    1  UNL1        0.0661
     25 C          63.4921   86.0876   16.5868 C.ar    1  UNL1        0.0513
     26 S          63.0101   87.4822   16.8563 S.2     1  UNL1       -0.0687
     27 C          63.4963   88.3638   15.7444 C.ar    1  UNL1        0.1108
     28 N          64.2789   87.5139   14.7876 N.ar    1  UNL1       -0.2450
@<TRIPOS>BOND
     1    23    24    1
     2    24    25   ar
     3    25    26   ar
     4    26    27   ar
     5    27    22    1
     6    22     1    1
     7     1     2   ar
     8     2    10    1
     9    10    11    1
    10    11    12    1
    11    12    13    1
    12    13    14    1
    13    14    16    1
    14    16    17    1
    15    17    18    1
    16    18    19    1
    17    19    20    1
    18    20    21    1
    19    14    15    1
    20     2     3   ar
    21     3     4   ar
    22     4     5   ar
    23     5     6   ar
    24     6     7   ar
    25     7     8   ar
    26     8     9   ar
    27    27    28   ar
    28    28    24   ar
    29     9     1   ar
    30    15    10    1
    31     9     4   ar
    32    21    16    1
@<TRIPOS>MOLECULE
*****
 28 32 0 0 0
SMALL
GASTEIGER

@<TRIPOS>ATOM
      1 N          63.7523   90.5067   14.0153 N.ar    1  UNL1       -0.3085
      2 C          63.3123   90.5149   12.5814 C.ar    1  UNL1        0.1215
      3 N          64.2424   91.4090   11.8162 N.ar    1  UNL1       -0.2309
      4 C          65.2573   91.9534   12.7773 C.ar    1  UNL1        0.0983
      5 C          66.4180   92.8849   12.5904 C.ar    1  UNL1        0.0206
      6 C          67.2759   93.2587   13.7627 C.ar    1  UNL1        0.0016
      7 C          66.9730   92.7011   15.1218 C.ar    1  UNL1        0.0016
      8 C          65.8122   91.7696   15.3087 C.ar    1  UNL1        0.0188
      9 C          64.9544   91.3958   14.1364 C.ar    1  UNL1        0.0789
     10 C          62.1468   89.7612   12.0124 C.3     1  UNL1        0.0729
     11 C          60.7604   90.0316   12.5171 C.3     1  UNL1        0.0103
     12 C          59.5949   89.2779   11.9482 C.3     1  UNL1        0.0178
     13 C          59.8158   88.2539   10.8746 C.3     1  UNL1        0.0721
     14 N          61.2023   87.9836   10.3700 N.3     1  UNL1       -0.2734
     15 C          62.3677   88.7372   10.9389 C.3     1  UNL1        0.0795
     16 C          61.4232   86.9595    9.2964 C.3     1  UNL1        0.0625
     17 C          62.7510   86.2718    9.1778 C.3     1  UNL1        0.0481
     18 C          62.9720   85.2478    8.1043 C.3     1  UNL1        0.1435
     19 O          61.8653   84.9115    7.1492 O.3     1  UNL1       -0.3537
     20 C          60.5375   85.5993    7.2677 C.3     1  UNL1        0.1435
     21 C          60.3165   86.6233    8.3414 C.3     1  UNL1        0.0481
     22 C          63.1041   89.7435   15.1322 C.3     1  UNL1        0.1596
     23 C          64.9641   84.8543   14.4136 C.3     1  UNL1        0.0527
     24 C          64.3117   86.0562   15.0300 C.ar    1  UNL1        0.0661
     25 C          63.6875   86.1192   16.3925 C.ar    1  UNL1        0.0513
     26 S          63.1592   87.5081   16.5966 S.2     1  UNL1       -0.0687
     27 C          63.4568   88.3036   15.3603 C.ar    1  UNL1        0.1108
     28 N          64.1692   87.4064   14.3921 N.ar    1  UNL1       -0.2450
@<TRIPOS>BOND
     1    23    24    1
     2    24    25   ar
     3    25    26   ar
     4    26    27   ar
     5    27    22    1
     6    22     1    1
     7     1     2   ar
     8     2    10    1
     9    10    11    1
    10    11    12    1
    11    12    13    1
    12    13    14    1
    13    14    16    1
    14    16    17    1
    15    17    18    1
    16    18    19    1
    17    19    20    1
    18    20    21    1
    19    14    15    1
    20     2     3   ar
    21     3     4   ar
    22     4     5   ar
    23     5     6   ar
    24     6     7   ar
    25     7     8   ar
    26     8     9   ar
    27    27    28   ar
    28    28    24   ar
    29     9     1   ar
    30    15    10    1
    31     9     4   ar
    32    21    16    1
@<TRIPOS>MOLECULE
*****
 28 32 0 0 0
SMALL
GASTEIGER

@<TRIPOS>ATOM
      1 N          63.3101   86.5784   12.8642 N.ar    1  UNL1       -0.3085
      2 C          63.6557   86.8793   14.2925 C.ar    1  UNL1        0.1215
      3 N          63.8723   85.5753   15.0015 N.ar    1  UNL1       -0.2309
      4 C          63.6606   84.4686   14.0114 C.ar    1  UNL1        0.0983
      5 C          63.7392   82.9764   14.1421 C.ar    1  UNL1        0.0206
      6 C          63.4705   82.1041   12.9517 C.ar    1  UNL1        0.0016
      7 C          63.1230   82.7241   11.6308 C.ar    1  UNL1        0.0016
      8 C          63.0444   84.2163   11.5001 C.ar    1  UNL1        0.0188
      9 C          63.3131   85.0885   12.6905 C.ar    1  UNL1        0.0789
     10 C          63.7655   88.2444   14.9043 C.3     1  UNL1        0.0729
     11 C          63.1783   88.5086   16.2591 C.3     1  UNL1        0.0103
     12 C          63.2880   89.8737   16.8709 C.3     1  UNL1        0.0178
     13 C          63.9850   90.9747   16.1280 C.3     1  UNL1        0.0721
     14 N          64.5722   90.7106   14.7733 N.3     1  UNL1       -0.2734
     15 C          64.4624   89.3455   14.1614 C.3     1  UNL1        0.0795
     16 C          65.2692   91.8117   14.0303 C.3     1  UNL1        0.0625
     17 C          66.1946   92.7398   14.7597 C.3     1  UNL1        0.0481
     18 C          66.8916   93.8408   14.0168 C.3     1  UNL1        0.1435
     19 O          66.6631   94.0137   12.5444 O.3     1  UNL1       -0.3537
     20 C          65.7377   93.0856   11.8149 C.3     1  UNL1        0.1435
     21 C          65.0407   91.9845   12.5579 C.3     1  UNL1        0.0481
     22 C          63.0136   87.5899   11.7969 C.3     1  UNL1        0.1596
     23 C          60.3603   85.8902    7.5600 C.3     1  UNL1        0.0527
     24 C          60.6934   86.5565    8.8621 C.ar    1  UNL1        0.0661
     25 C          59.7453   87.3427    9.7180 C.ar    1  UNL1        0.0513
     26 S          60.4990   87.8256   10.9216 S.2     1  UNL1       -0.0687
     27 C          61.9130   87.3377   10.8096 C.ar    1  UNL1        0.1108
     28 N          62.0332   86.5533    9.5367 N.ar    1  UNL1       -0.2450
@<TRIPOS>BOND
     1    23    24    1
     2    24    25   ar
     3    25    26   ar
     4    26    27   ar
     5    27    22    1
     6    22     1    1
     7     1     2   ar
     8     2    10    1
     9    10    11    1
    10    11    12    1
    11    12    13    1
    12    13    14    1
    13    14    16    1
    14    16    17    1
    15    17    18    1
    16    18    19    1
    17    19    20    1
    18    20    21    1
    19    14    15    1
    20     2     3   ar
    21     3     4   ar
    22     4     5   ar
    23     5     6   ar
    24     6     7   ar
    25     7     8   ar
    26     8     9   ar
    27    27    28   ar
    28    28    24   ar
    29     9     1   ar
    30    15    10    1
    31     9     4   ar
    32    21    16    1
@<TRIPOS>MOLECULE
*****
 28 32 0 0 0
SMALL
GASTEIGER

@<TRIPOS>ATOM
      1 N          62.1045   88.1423   11.5900 N.ar    1  UNL1       -0.3085
      2 C          61.7699   88.9692   10.3840 C.ar    1  UNL1        0.1215
      3 N          62.5228   90.2626   10.4855 N.ar    1  UNL1       -0.2309
      4 C          63.3227   90.2350   11.7542 C.ar    1  UNL1        0.0983
      5 C          64.2531   91.2338   12.3760 C.ar    1  UNL1        0.0206
      6 C          64.9250   90.9221   13.6803 C.ar    1  UNL1        0.0016
      7 C          64.6664   89.6117   14.3629 C.ar    1  UNL1        0.0016
      8 C          63.7360   88.6129   13.7411 C.ar    1  UNL1        0.0188
      9 C          63.0642   88.9245   12.4367 C.ar    1  UNL1        0.0789
     10 C          60.8448   88.5725    9.2719 C.3     1  UNL1        0.0729
     11 C          60.3221   87.1686    9.1960 C.3     1  UNL1        0.0103
     12 C          59.3970   86.7718    8.0839 C.3     1  UNL1        0.0178
     13 C          58.9946   87.7790    7.0477 C.3     1  UNL1        0.0721
     14 N          59.5173   89.1828    7.1236 N.3     1  UNL1       -0.2734
     15 C          60.4424   89.5796    8.2357 C.3     1  UNL1        0.0795
     16 C          59.1150   90.1901    6.0874 C.3     1  UNL1        0.0625
     17 C          57.6632   90.4858    5.8529 C.3     1  UNL1        0.0481
     18 C          57.2609   91.4929    4.8167 C.3     1  UNL1        0.1435
     19 O          58.3102   92.2045    4.0150 O.3     1  UNL1       -0.3537
     20 C          59.7620   91.9087    4.2496 C.3     1  UNL1        0.1435
     21 C          60.1643   90.9015    5.2858 C.3     1  UNL1        0.0481
     22 C          61.5727   86.7734   11.8955 C.3     1  UNL1        0.1596
     23 C          64.3179   82.6209   10.1343 C.3     1  UNL1        0.0527
     24 C          63.7486   83.6764   11.0354 C.ar    1  UNL1        0.0661
     25 C          64.0379   83.8367   12.4983 C.ar    1  UNL1        0.0513
     26 S          63.2581   85.0163   12.9986 S.2     1  UNL1       -0.0687
     27 C          62.4867   85.5852   11.8449 C.ar    1  UNL1        0.1108
     28 N          62.7898   84.7571   10.6314 N.ar    1  UNL1       -0.2450
@<TRIPOS>BOND
     1    23    24    1
     2    24    25   ar
     3    25    26   ar
     4    26    27   ar
     5    27    22    1
     6    22     1    1
     7     1     2   ar
     8     2    10    1
     9    10    11    1
    10    11    12    1
    11    12    13    1
    12    13    14    1
    13    14    16    1
    14    16    17    1
    15    17    18    1
    16    18    19    1
    17    19    20    1
    18    20    21    1
    19    14    15    1
    20     2     3   ar
    21     3     4   ar
    22     4     5   ar
    23     5     6   ar
    24     6     7   ar
    25     7     8   ar
    26     8     9   ar
    27    27    28   ar
    28    28    24   ar
    29     9     1   ar
    30    15    10    1
    31     9     4   ar
    32    21    16    1
@<TRIPOS>MOLECULE
*****
 28 32 0 0 0
SMALL
GASTEIGER

@<TRIPOS>ATOM
      1 N          64.2544   90.0041   13.0096 N.ar    1  UNL1       -0.3085
      2 C          63.2873   90.4956   11.9736 C.ar    1  UNL1        0.1215
      3 N          63.6821   91.8928   11.5969 N.ar    1  UNL1       -0.2309
      4 C          64.8932   92.2648   12.4000 C.ar    1  UNL1        0.0983
      5 C          65.7197   93.5156   12.4490 C.ar    1  UNL1        0.0206
      6 C          66.8997   93.5991   13.3711 C.ar    1  UNL1        0.0016
      7 C          67.2534   92.4318   14.2442 C.ar    1  UNL1        0.0016
      8 C          66.4270   91.1810   14.1952 C.ar    1  UNL1        0.0188
      9 C          65.2469   91.0975   13.2730 C.ar    1  UNL1        0.0789
     10 C          62.1288   89.7252   11.4129 C.3     1  UNL1        0.0729
     11 C          60.7306   90.0513   11.8473 C.3     1  UNL1        0.0103
     12 C          59.5721   89.2810   11.2866 C.3     1  UNL1        0.0178
     13 C          59.8118   88.1845   10.2915 C.3     1  UNL1        0.0721
     14 N          61.2099   87.8584    9.8571 N.3     1  UNL1       -0.2734
     15 C          62.3684   88.6288   10.4178 C.3     1  UNL1        0.0795
     16 C          61.4497   86.7619    8.8620 C.3     1  UNL1        0.0625
     17 C          62.7730   86.0564    8.8276 C.3     1  UNL1        0.0481
     18 C          63.0127   84.9599    7.8326 C.3     1  UNL1        0.1435
     19 O          61.9292   84.5689    6.8718 O.3     1  UNL1       -0.3537
     20 C          60.6059   85.2744    6.9061 C.3     1  UNL1        0.1435
     21 C          60.3662   86.3709    7.9012 C.3     1  UNL1        0.0481
     22 C          64.2327   88.6558   13.6667 C.3     1  UNL1        0.1596
     23 C          62.6879   86.5641   18.2622 C.3     1  UNL1        0.0527
     24 C          63.0271   87.5545   17.1878 C.ar    1  UNL1        0.0661
     25 C          62.9223   89.0466   17.2991 C.ar    1  UNL1        0.0513
     26 S          63.3611   89.6408   15.9937 S.2     1  UNL1       -0.0687
     27 C          63.7372   88.5159   15.0755 C.ar    1  UNL1        0.1108
     28 N          63.5308   87.2265   15.8135 N.ar    1  UNL1       -0.2450
@<TRIPOS>BOND
     1    23    24    1
     2    24    25   ar
     3    25    26   ar
     4    26    27   ar
     5    27    22    1
     6    22     1    1
     7     1     2   ar
     8     2    10    1
     9    10    11    1
    10    11    12    1
    11    12    13    1
    12    13    14    1
    13    14    16    1
    14    16    17    1
    15    17    18    1
    16    18    19    1
    17    19    20    1
    18    20    21    1
    19    14    15    1
    20     2     3   ar
    21     3     4   ar
    22     4     5   ar
    23     5     6   ar
    24     6     7   ar
    25     7     8   ar
    26     8     9   ar
    27    27    28   ar
    28    28    24   ar
    29     9     1   ar
    30    15    10    1
    31     9     4   ar
    32    21    16    1
@<TRIPOS>MOLECULE
*****
 28 32 0 0 0
SMALL
GASTEIGER

@<TRIPOS>ATOM
      1 N          61.9208   88.3413   10.8248 N.ar    1  UNL1       -0.3085
      2 C          62.3180   89.7728   10.6174 C.ar    1  UNL1        0.1215
      3 N          61.5492   90.3016    9.4430 N.ar    1  UNL1       -0.2309
      4 C          60.6767   89.1970    8.9247 C.ar    1  UNL1        0.0983
      5 C          59.7028   89.1379    7.7854 C.ar    1  UNL1        0.0206
      6 C          58.9586   87.8672    7.5001 C.ar    1  UNL1        0.0016
      7 C          59.1883   86.6556    8.3541 C.ar    1  UNL1        0.0016
      8 C          60.1622   86.7147    9.4934 C.ar    1  UNL1        0.0188
      9 C          60.9064   87.9854    9.7787 C.ar    1  UNL1        0.0789
     10 C          63.3100   90.5405   11.4399 C.3     1  UNL1        0.0729
     11 C          63.3680   90.3397   12.9252 C.3     1  UNL1        0.0103
     12 C          64.3600   91.1075   13.7477 C.3     1  UNL1        0.0178
     13 C          65.2939   92.0761   13.0849 C.3     1  UNL1        0.0721
     14 N          65.2359   92.2770   11.5995 N.3     1  UNL1       -0.2734
     15 C          64.2440   91.5092   10.7771 C.3     1  UNL1        0.0795
     16 C          66.1699   93.2457   10.9366 C.3     1  UNL1        0.0625
     17 C          67.2950   92.7387   10.0839 C.3     1  UNL1        0.0481
     18 C          68.2290   93.7073    9.4210 C.3     1  UNL1        0.1435
     19 O          68.0379   95.1830    9.6108 O.3     1  UNL1       -0.3537
     20 C          66.9128   95.6900   10.4636 C.3     1  UNL1        0.1435
     21 C          65.9788   94.7213   11.1265 C.3     1  UNL1        0.0481
     22 C          62.4457   87.4262   11.8912 C.3     1  UNL1        0.1596
     23 C          62.5932   82.1831   12.4979 C.3     1  UNL1        0.0527
     24 C          62.6745   83.5516   11.8891 C.ar    1  UNL1        0.0661
     25 C          63.0344   83.8640   10.4669 C.ar    1  UNL1        0.0513
     26 S          62.9925   85.3534   10.2945 S.2     1  UNL1       -0.0687
     27 C          62.6067   85.9617   11.6102 C.ar    1  UNL1        0.1108
     28 N          62.4102   84.8481   12.5958 N.ar    1  UNL1       -0.2450
@<TRIPOS>BOND
     1    23    24    1
     2    24    25   ar
     3    25    26   ar
     4    26    27   ar
     5    27    22    1
     6    22     1    1
     7     1     2   ar
     8     2    10    1
     9    10    11    1
    10    11    12    1
    11    12    13    1
    12    13    14    1
    13    14    16    1
    14    16    17    1
    15    17    18    1
    16    18    19    1
    17    19    20    1
    18    20    21    1
    19    14    15    1
    20     2     3   ar
    21     3     4   ar
    22     4     5   ar
    23     5     6   ar
    24     6     7   ar
    25     7     8   ar
    26     8     9   ar
    27    27    28   ar
    28    28    24   ar
    29     9     1   ar
    30    15    10    1
    31     9     4   ar
    32    21    16    1
@<TRIPOS>MOLECULE
*****
 28 32 0 0 0
SMALL
GASTEIGER

@<TRIPOS>ATOM
      1 N          63.8659   90.8864   13.8900 N.ar    1  UNL1       -0.3085
      2 C          63.5241   90.5662   12.4651 C.ar    1  UNL1        0.1215
      3 N          64.3543   91.4478   11.5799 N.ar    1  UNL1       -0.2309
      4 C          65.2092   92.3129   12.4579 C.ar    1  UNL1        0.0983
      5 C          66.2235   93.3717   12.1417 C.ar    1  UNL1        0.0206
      6 C          66.9360   94.0836   13.2533 C.ar    1  UNL1        0.0016
      7 C          66.6341   93.7366   14.6810 C.ar    1  UNL1        0.0016
      8 C          65.6198   92.6777   14.9972 C.ar    1  UNL1        0.0188
      9 C          64.9074   91.9659   13.8856 C.ar    1  UNL1        0.0789
     10 C          62.5271   89.5439   12.0058 C.3     1  UNL1        0.0729
     11 C          61.1047   89.9455   11.7499 C.3     1  UNL1        0.0103
     12 C          60.1078   88.9232   11.2906 C.3     1  UNL1        0.0178
     13 C          60.5332   87.4992   11.0873 C.3     1  UNL1        0.0721
     14 N          61.9555   87.0976   11.3432 N.3     1  UNL1       -0.2734
     15 C          62.9525   88.1199   11.8025 C.3     1  UNL1        0.0795
     16 C          62.3810   85.6736   11.1399 C.3     1  UNL1        0.0625
     17 C          62.2304   84.6796   12.2532 C.3     1  UNL1        0.0481
     18 C          62.6559   83.2557   12.0499 C.3     1  UNL1        0.1435
     19 O          63.2319   82.8256   10.7333 O.3     1  UNL1       -0.3537
     20 C          63.3824   83.8196    9.6201 C.3     1  UNL1        0.1435
     21 C          62.9569   85.2436    9.8234 C.3     1  UNL1        0.0481
     22 C          63.2708   90.2405   15.1060 C.3     1  UNL1        0.1596
     23 C          65.0008   85.2706   14.6719 C.3     1  UNL1        0.0527
     24 C          64.3379   86.5098   15.1966 C.ar    1  UNL1        0.0661
     25 C          63.5848   86.6273   16.4884 C.ar    1  UNL1        0.0513
     26 S          63.0934   88.0391   16.6118 S.2     1  UNL1       -0.0687
     27 C          63.5428   88.7942   15.3961 C.ar    1  UNL1        0.1108
     28 N          64.3120   87.8491   14.5215 N.ar    1  UNL1       -0.2450
@<TRIPOS>BOND
     1    23    24    1
     2    24    25   ar
     3    25    26   ar
     4    26    27   ar
     5    27    22    1
     6    22     1    1
     7     1     2   ar
     8     2    10    1
     9    10    11    1
    10    11    12    1
    11    12    13    1
    12    13    14    1
    13    14    16    1
    14    16    17    1
    15    17    18    1
    16    18    19    1
    17    19    20    1
    18    20    21    1
    19    14    15    1
    20     2     3   ar
    21     3     4   ar
    22     4     5   ar
    23     5     6   ar
    24     6     7   ar
    25     7     8   ar
    26     8     9   ar
    27    27    28   ar
    28    28    24   ar
    29     9     1   ar
    30    15    10    1
    31     9     4   ar
    32    21    16    1
