@<TRIPOS>MOLECULE
*****
 35 38 0 0 0
SMALL
GASTEIGER

@<TRIPOS>ATOM
      1 N          64.4350   89.8781   13.9042 N.pl3   1  UNL1       -0.2867
      2 C          65.4918   90.8931   14.2252 C.3     1  UNL1        0.0948
      3 C          64.9965   91.7622   13.1074 C.3     1  UNL1        0.0506
      4 C          63.9397   90.7472   12.7865 C.3     1  UNL1        0.1525
      5 C          63.6158   86.0025   14.1463 C.ar    1  UNL1        0.1362
      6 C          64.0129   87.3348   13.5829 C.ar    1  UNL1        0.0686
      7 C          64.0379   88.5458   14.4677 C.ar    1  UNL1        0.1364
      8 N          63.6659   88.4246   15.9157 N.ar    1  UNL1       -0.2083
      9 C          63.2688   87.0924   16.4790 C.ar    1  UNL1        0.2374
     10 N          63.2438   85.8813   15.5943 N.ar    1  UNL1       -0.2083
     11 C          63.5156   81.1583   10.6074 C.3     1  UNL1        0.0897
     12 N          63.5406   82.3693   11.4921 N.3     1  UNL1       -0.2686
     13 C          64.3295   82.3501   12.7678 C.3     1  UNL1        0.0939
     14 C          64.3545   83.5611   13.6525 C.3     1  UNL1        0.1095
     15 N          63.5907   84.7914   13.2615 N.pl3   1  UNL1       -0.2903
     16 C          62.8019   84.8107   11.9859 C.3     1  UNL1        0.1095
     17 C          62.7768   83.5997   11.1012 C.3     1  UNL1        0.0939
     18 C          62.8968   86.9711   17.9271 C.3     1  UNL1        0.4524
     19 F          62.5248   86.8499   19.3752 F       1  UNL1       -0.1632
     20 F          63.2275   88.4195   18.1333 F       1  UNL1       -0.1632
     21 F          62.5660   85.5227   17.7209 F       1  UNL1       -0.1632
     22 C          62.8422   90.6441   11.7693 C.2     1  UNL1        0.2406
     23 O          63.0781   91.1067   10.3620 O.2     1  UNL1       -0.2733
     24 N          61.5088   90.0784   12.1592 N.am    1  UNL1       -0.3027
     25 H          61.3540   89.7747   13.0828 H       1  UNL1        0.1495
     26 C          60.4114   89.9752   11.1420 C.3     1  UNL1        0.0941
     27 C          59.7080   88.6679   10.9275 C.3     1  UNL1        0.0476
     28 C          60.1644   87.7400    9.8408 C.ar    1  UNL1       -0.0204
     29 C          61.5916   87.2807    9.7971 C.ar    1  UNL1       -0.0035
     30 C          62.0480   86.3529    8.7103 C.ar    1  UNL1        0.0100
     31 C          61.0771   85.8845    7.6673 C.ar    1  UNL1        0.0684
     32 C          59.6498   86.3439    7.7110 C.ar    1  UNL1        0.0100
     33 C          59.1935   87.2716    8.7977 C.ar    1  UNL1       -0.0035
     34 C          61.5334   84.9567    6.5806 C.1     1  UNL1        0.1004
     35 N          61.9897   84.0289    5.4939 N.1     1  UNL1       -0.1908
@<TRIPOS>BOND
     1    11    12    1
     2    12    13    1
     3    13    14    1
     4    14    15    1
     5    15     5    1
     6     5     6   ar
     7     6     7   ar
     8     7     1    1
     9     1     2    1
    10     2     3    1
    11     3     4    1
    12     4    22    1
    13    22    23    2
    14    22    24   am
    15    24    26    1
    16    26    27    1
    17    27    28    1
    18    28    29   ar
    19    29    30   ar
    20    30    31   ar
    21    31    34    1
    22    34    35    3
    23    31    32   ar
    24    32    33   ar
    25     7     8   ar
    26     8     9   ar
    27     9    18    1
    28    18    19    1
    29    18    20    1
    30    18    21    1
    31     9    10   ar
    32    15    16    1
    33    16    17    1
    34    17    12    1
    35    10     5   ar
    36     4     1    1
    37    33    28   ar
    38    24    25    1
@<TRIPOS>MOLECULE
*****
 35 38 0 0 0
SMALL
GASTEIGER

@<TRIPOS>ATOM
      1 N          66.9555   92.9260   14.3457 N.pl3   1  UNL1       -0.2867
      2 C          68.2757   93.3618   14.9088 C.3     1  UNL1        0.0948
      3 C          67.7878   93.0517   16.2929 C.3     1  UNL1        0.0506
      4 C          66.4676   92.6159   15.7299 C.3     1  UNL1        0.1525
      5 C          64.6401   91.8091   11.3223 C.ar    1  UNL1        0.1362
      6 C          65.2287   91.8981   12.6990 C.ar    1  UNL1        0.0686
      7 C          66.3669   92.8370   12.9689 C.ar    1  UNL1        0.1364
      8 N          66.9166   93.6869   11.8619 N.ar    1  UNL1       -0.2083
      9 C          66.3280   93.5979   10.4851 C.ar    1  UNL1        0.2374
     10 N          65.1897   92.6590   10.2153 N.ar    1  UNL1       -0.2083
     11 C          60.0871   88.0534   10.2430 C.3     1  UNL1        0.0897
     12 N          61.2253   88.9923   10.5128 N.3     1  UNL1       -0.2686
     13 C          62.0825   88.8019   11.7289 C.3     1  UNL1        0.0939
     14 C          63.2207   89.7408   11.9987 C.3     1  UNL1        0.1095
     15 N          63.5018   90.8702   11.0524 N.pl3   1  UNL1       -0.2903
     16 C          62.6446   91.0606    9.8363 C.3     1  UNL1        0.1095
     17 C          61.5064   90.1217    9.5665 C.3     1  UNL1        0.0939
     18 C          66.8777   94.4479    9.3780 C.3     1  UNL1        0.4524
     19 F          67.4273   95.2978    8.2710 F       1  UNL1       -0.1632
     20 F          66.0433   95.6017    9.8497 F       1  UNL1       -0.1632
     21 F          67.7120   93.2941    8.9064 F       1  UNL1       -0.1632
     22 C          65.1890   92.0885   16.3104 C.2     1  UNL1        0.2406
     23 O          64.6318   92.6892   17.5669 O.2     1  UNL1       -0.2733
     24 N          64.4676   90.9602   15.6346 N.am    1  UNL1       -0.3027
     25 H          64.8333   90.5660   14.8099 H       1  UNL1        0.1495
     26 C          63.1890   90.4328   16.2151 C.3     1  UNL1        0.0941
     27 C          63.2187   89.2681   17.1599 C.3     1  UNL1        0.0476
     28 C          63.3162   87.8703   16.6244 C.ar    1  UNL1       -0.0204
     29 C          64.0712   87.6041   15.3559 C.ar    1  UNL1       -0.0035
     30 C          64.1687   86.2062   14.8204 C.ar    1  UNL1        0.0100
     31 C          63.5112   85.0747   15.5535 C.ar    1  UNL1        0.0684
     32 C          62.7562   85.3410   16.8220 C.ar    1  UNL1        0.0100
     33 C          62.6587   86.7388   17.3574 C.ar    1  UNL1       -0.0035
     34 C          63.6087   83.6770   15.0180 C.1     1  UNL1        0.1004
     35 N          63.7062   82.2792   14.4826 N.1     1  UNL1       -0.1908
@<TRIPOS>BOND
     1    11    12    1
     2    12    13    1
     3    13    14    1
     4    14    15    1
     5    15     5    1
     6     5     6   ar
     7     6     7   ar
     8     7     1    1
     9     1     2    1
    10     2     3    1
    11     3     4    1
    12     4    22    1
    13    22    23    2
    14    22    24   am
    15    24    26    1
    16    26    27    1
    17    27    28    1
    18    28    29   ar
    19    29    30   ar
    20    30    31   ar
    21    31    34    1
    22    34    35    3
    23    31    32   ar
    24    32    33   ar
    25     7     8   ar
    26     8     9   ar
    27     9    18    1
    28    18    19    1
    29    18    20    1
    30    18    21    1
    31     9    10   ar
    32    15    16    1
    33    16    17    1
    34    17    12    1
    35    10     5   ar
    36     4     1    1
    37    33    28   ar
    38    24    25    1
@<TRIPOS>MOLECULE
*****
 35 38 0 0 0
SMALL
GASTEIGER

@<TRIPOS>ATOM
      1 N          64.1041   90.6095   14.6531 N.pl3   1  UNL1       -0.2867
      2 C          63.5628   89.9872   15.9060 C.3     1  UNL1        0.0948
      3 C          62.4343   89.3875   15.1206 C.3     1  UNL1        0.0506
      4 C          62.9756   90.0098   13.8677 C.3     1  UNL1        0.1525
      5 C          66.4723   93.1469   12.7287 C.ar    1  UNL1        0.1362
      6 C          65.2917   92.2828   13.0594 C.ar    1  UNL1        0.0686
      7 C          65.2848   91.4737   14.3224 C.ar    1  UNL1        0.1364
      8 N          66.4585   91.5287   15.2548 N.ar    1  UNL1       -0.2083
      9 C          67.6391   92.3928   14.9241 C.ar    1  UNL1        0.2374
     10 N          67.6460   93.2019   13.6610 N.ar    1  UNL1       -0.2083
     11 C          66.5000   96.3833    7.6765 C.3     1  UNL1        0.0897
     12 N          66.4931   95.5742    8.9395 N.3     1  UNL1       -0.2686
     13 C          65.9952   96.1824   10.2171 C.3     1  UNL1        0.0939
     14 C          65.9883   95.3733   11.4801 C.3     1  UNL1        0.1095
     15 N          66.4792   93.9560   11.4656 N.pl3   1  UNL1       -0.2903
     16 C          66.9771   93.3478   10.1881 C.3     1  UNL1        0.1095
     17 C          66.9840   94.1569    8.9250 C.3     1  UNL1        0.0939
     18 C          68.8129   92.4479   15.8565 C.3     1  UNL1        0.4524
     19 F          69.9866   92.5029   16.7888 F       1  UNL1       -0.1632
     20 F          69.7028   92.8361   14.7132 F       1  UNL1       -0.1632
     21 F          67.9229   92.0596   16.9998 F       1  UNL1       -0.1632
     22 C          62.5603   90.0258   12.4265 C.2     1  UNL1        0.2406
     23 O          63.5638   90.3521   11.3604 O.2     1  UNL1       -0.2733
     24 N          61.1415   89.7155   12.0512 N.am    1  UNL1       -0.3027
     25 H          60.4828   89.5014   12.7509 H       1  UNL1        0.1495
     26 C          60.7262   89.7315   10.6100 C.3     1  UNL1        0.0941
     27 C          60.3007   88.4598    9.9380 C.3     1  UNL1        0.0476
     28 C          61.1764   87.2440   10.0102 C.ar    1  UNL1       -0.0204
     29 C          61.9083   86.7733    8.7884 C.ar    1  UNL1       -0.0035
     30 C          62.7840   85.5575    8.8606 C.ar    1  UNL1        0.0100
     31 C          62.9277   84.8125   10.1546 C.ar    1  UNL1        0.0684
     32 C          62.1957   85.2833   11.3764 C.ar    1  UNL1        0.0100
     33 C          61.3201   86.4990   11.3041 C.ar    1  UNL1       -0.0035
     34 C          63.8033   83.5968   10.2268 C.1     1  UNL1        0.1004
     35 N          64.6789   82.3811   10.2990 N.1     1  UNL1       -0.1908
@<TRIPOS>BOND
     1    11    12    1
     2    12    13    1
     3    13    14    1
     4    14    15    1
     5    15     5    1
     6     5     6   ar
     7     6     7   ar
     8     7     1    1
     9     1     2    1
    10     2     3    1
    11     3     4    1
    12     4    22    1
    13    22    23    2
    14    22    24   am
    15    24    26    1
    16    26    27    1
    17    27    28    1
    18    28    29   ar
    19    29    30   ar
    20    30    31   ar
    21    31    34    1
    22    34    35    3
    23    31    32   ar
    24    32    33   ar
    25     7     8   ar
    26     8     9   ar
    27     9    18    1
    28    18    19    1
    29    18    20    1
    30    18    21    1
    31     9    10   ar
    32    15    16    1
    33    16    17    1
    34    17    12    1
    35    10     5   ar
    36     4     1    1
    37    33    28   ar
    38    24    25    1
@<TRIPOS>MOLECULE
*****
 35 38 0 0 0
SMALL
GASTEIGER

@<TRIPOS>ATOM
      1 N          63.5747   90.3034   15.0676 N.pl3   1  UNL1       -0.2867
      2 C          63.5302   91.2150   16.2580 C.3     1  UNL1        0.0948
      3 C          63.5063   90.0238   17.1693 C.3     1  UNL1        0.0506
      4 C          63.5507   89.1122   15.9789 C.3     1  UNL1        0.1525
      5 C          62.7956   89.8732   11.2001 C.ar    1  UNL1        0.1362
      6 C          62.7472   89.6756   12.6862 C.ar    1  UNL1        0.0686
      7 C          63.6230   90.5011   13.5814 C.ar    1  UNL1        0.1364
      8 N          64.5472   91.5242   12.9906 N.ar    1  UNL1       -0.2083
      9 C          64.5955   91.7219   11.5045 C.ar    1  UNL1        0.2374
     10 N          63.7197   90.8964   10.6092 N.ar    1  UNL1       -0.2083
     11 C          59.2923   86.5712    7.6190 C.3     1  UNL1        0.0897
     12 N          60.1682   87.3967    8.5143 N.3     1  UNL1       -0.2686
     13 C          59.9373   88.8739    8.6347 C.3     1  UNL1        0.0939
     14 C          60.8131   89.6994    9.5299 C.3     1  UNL1        0.1095
     15 N          61.9198   89.0477   10.3048 N.pl3   1  UNL1       -0.2903
     16 C          62.1506   87.5705   10.1844 C.3     1  UNL1        0.1095
     17 C          61.2748   86.7450    9.2891 C.3     1  UNL1        0.0939
     18 C          65.5196   92.7450   10.9136 C.3     1  UNL1        0.4524
     19 F          66.4437   93.7682   10.3227 F       1  UNL1       -0.1632
     20 F          64.4303   93.1924    9.9846 F       1  UNL1       -0.1632
     21 F          66.6090   92.2977   11.8426 F       1  UNL1       -0.1632
     22 C          63.5652   87.6253   15.7816 C.2     1  UNL1        0.2406
     23 O          62.8493   86.7330   16.7518 O.2     1  UNL1       -0.2733
     24 N          64.2955   87.0308   14.6140 N.am    1  UNL1       -0.3027
     25 H          64.7653   87.6164   13.9772 H       1  UNL1        0.1495
     26 C          64.3100   85.5439   14.4167 C.3     1  UNL1        0.0941
     27 C          63.0305   84.8116   14.1400 C.3     1  UNL1        0.0476
     28 C          63.0203   83.6531   13.1871 C.ar    1  UNL1       -0.0204
     29 C          62.5276   82.3116   13.6427 C.ar    1  UNL1       -0.0035
     30 C          62.5174   81.1531   12.6898 C.ar    1  UNL1        0.0100
     31 C          62.9999   81.3363   11.2814 C.ar    1  UNL1        0.0684
     32 C          63.4925   82.6779   10.8258 C.ar    1  UNL1        0.0100
     33 C          63.5027   83.8363   11.7787 C.ar    1  UNL1       -0.0035
     34 C          62.9897   80.1779   10.3285 C.1     1  UNL1        0.1004
     35 N          62.9795   79.0195    9.3757 N.1     1  UNL1       -0.1908
@<TRIPOS>BOND
     1    11    12    1
     2    12    13    1
     3    13    14    1
     4    14    15    1
     5    15     5    1
     6     5     6   ar
     7     6     7   ar
     8     7     1    1
     9     1     2    1
    10     2     3    1
    11     3     4    1
    12     4    22    1
    13    22    23    2
    14    22    24   am
    15    24    26    1
    16    26    27    1
    17    27    28    1
    18    28    29   ar
    19    29    30   ar
    20    30    31   ar
    21    31    34    1
    22    34    35    3
    23    31    32   ar
    24    32    33   ar
    25     7     8   ar
    26     8     9   ar
    27     9    18    1
    28    18    19    1
    29    18    20    1
    30    18    21    1
    31     9    10   ar
    32    15    16    1
    33    16    17    1
    34    17    12    1
    35    10     5   ar
    36     4     1    1
    37    33    28   ar
    38    24    25    1
@<TRIPOS>MOLECULE
*****
 35 38 0 0 0
SMALL
GASTEIGER

@<TRIPOS>ATOM
      1 N          62.7809   90.4314   11.7927 N.pl3   1  UNL1       -0.2867
      2 C          61.4643   90.5770   11.0889 C.3     1  UNL1        0.0948
      3 C          61.1636   89.1312   11.3525 C.3     1  UNL1        0.0506
      4 C          62.4803   88.9857   12.0562 C.3     1  UNL1        0.1525
      5 C          65.6031   93.1872   11.3555 C.ar    1  UNL1        0.1362
      6 C          64.4595   92.2679   11.0443 C.ar    1  UNL1        0.0686
      7 C          63.9246   91.3508   12.1040 C.ar    1  UNL1        0.1364
      8 N          64.5333   91.3531   13.4749 N.ar    1  UNL1       -0.2083
      9 C          65.6769   92.2725   13.7861 C.ar    1  UNL1        0.2374
     10 N          66.2118   93.1895   12.7265 N.ar    1  UNL1       -0.2083
     11 C          67.7429   96.8553    7.1169 C.3     1  UNL1        0.0897
     12 N          67.2079   95.9383    8.1765 N.3     1  UNL1       -0.2686
     13 C          66.1037   96.4003    9.0806 C.3     1  UNL1        0.0939
     14 C          65.5688   95.4832   10.1402 C.3     1  UNL1        0.1095
     15 N          66.1381   94.1042   10.2959 N.pl3   1  UNL1       -0.2903
     16 C          67.2423   93.6423    9.3919 C.3     1  UNL1        0.1095
     17 C          67.7772   94.5593    8.3322 C.3     1  UNL1        0.0939
     18 C          66.2856   92.2748   15.1571 C.3     1  UNL1        0.4524
     19 F          66.8943   92.2771   16.5280 F       1  UNL1       -0.1632
     20 F          66.0734   90.7931   15.2538 F       1  UNL1       -0.1632
     21 F          66.4979   93.7565   15.0604 F       1  UNL1       -0.1632
     22 C          63.1986   87.8606   12.7403 C.2     1  UNL1        0.2406
     23 O          63.1552   86.4789   12.1578 O.2     1  UNL1       -0.2733
     24 N          63.9605   88.1170   14.0067 N.am    1  UNL1       -0.3027
     25 H          63.9890   89.0238   14.3890 H       1  UNL1        0.1495
     26 C          64.6788   86.9919   14.6908 C.3     1  UNL1        0.0941
     27 C          63.9004   85.9459   15.4323 C.3     1  UNL1        0.0476
     28 C          63.6323   84.6160   14.7921 C.ar    1  UNL1       -0.0204
     29 C          64.5831   84.0714   13.7678 C.ar    1  UNL1       -0.0035
     30 C          64.3150   82.7416   13.1277 C.ar    1  UNL1        0.0100
     31 C          63.0960   81.9564   13.5118 C.ar    1  UNL1        0.0684
     32 C          62.1451   82.5012   14.5361 C.ar    1  UNL1        0.0100
     33 C          62.4132   83.8309   15.1762 C.ar    1  UNL1       -0.0035
     34 C          62.8278   80.6267   12.8717 C.1     1  UNL1        0.1004
     35 N          62.5596   79.2969   12.2316 N.1     1  UNL1       -0.1908
@<TRIPOS>BOND
     1    11    12    1
     2    12    13    1
     3    13    14    1
     4    14    15    1
     5    15     5    1
     6     5     6   ar
     7     6     7   ar
     8     7     1    1
     9     1     2    1
    10     2     3    1
    11     3     4    1
    12     4    22    1
    13    22    23    2
    14    22    24   am
    15    24    26    1
    16    26    27    1
    17    27    28    1
    18    28    29   ar
    19    29    30   ar
    20    30    31   ar
    21    31    34    1
    22    34    35    3
    23    31    32   ar
    24    32    33   ar
    25     7     8   ar
    26     8     9   ar
    27     9    18    1
    28    18    19    1
    29    18    20    1
    30    18    21    1
    31     9    10   ar
    32    15    16    1
    33    16    17    1
    34    17    12    1
    35    10     5   ar
    36     4     1    1
    37    33    28   ar
    38    24    25    1
@<TRIPOS>MOLECULE
*****
 35 38 0 0 0
SMALL
GASTEIGER

@<TRIPOS>ATOM
      1 N          63.6105   85.5547   14.3504 N.pl3   1  UNL1       -0.2867
      2 C          63.8708   84.8249   15.6348 C.3     1  UNL1        0.0948
      3 C          64.1492   86.1299   16.3200 C.3     1  UNL1        0.0506
      4 C          63.8889   86.8597   15.0356 C.3     1  UNL1        0.1525
      5 C          62.1138   85.7019   10.6778 C.ar    1  UNL1        0.1362
      6 C          62.4947   86.1085   12.0704 C.ar    1  UNL1        0.0686
      7 C          63.2296   85.1480   12.9577 C.ar    1  UNL1        0.1364
      8 N          63.5836   83.7808   12.4524 N.ar    1  UNL1       -0.2083
      9 C          63.2027   83.3741   11.0597 C.ar    1  UNL1        0.2374
     10 N          62.4678   84.3347   10.1724 N.ar    1  UNL1       -0.2083
     11 C          59.1743   89.5441    7.1286 C.3     1  UNL1        0.0897
     12 N          59.9092   88.5835    8.0159 N.3     1  UNL1       -0.2686
     13 C          59.8217   87.1083    7.7592 C.3     1  UNL1        0.0939
     14 C          60.5566   86.1477    8.6465 C.3     1  UNL1        0.1095
     15 N          61.3790   86.6624    9.7905 N.pl3   1  UNL1       -0.2903
     16 C          61.4664   88.1377   10.0472 C.3     1  UNL1        0.1095
     17 C          60.7315   89.0982    9.1599 C.3     1  UNL1        0.0939
     18 C          63.5567   82.0069   10.5543 C.3     1  UNL1        0.4524
     19 F          63.9107   80.6397   10.0489 F       1  UNL1       -0.1632
     20 F          64.6040   82.6072    9.6640 F       1  UNL1       -0.1632
     21 F          62.5094   81.4065   11.4446 F       1  UNL1       -0.1632
     22 C          63.9018   88.2985   14.6118 C.2     1  UNL1        0.2406
     23 O          63.9047   88.6510   13.1538 O.2     1  UNL1       -0.2733
     24 N          63.9117   89.3849   15.6461 N.am    1  UNL1       -0.3027
     25 H          63.9098   89.1536   16.6030 H       1  UNL1        0.1495
     26 C          63.9245   90.8238   15.2224 C.3     1  UNL1        0.0941
     27 C          65.2228   91.5708   15.1437 C.3     1  UNL1        0.0476
     28 C          65.8854   91.7855   13.8151 C.ar    1  UNL1       -0.0204
     29 C          65.0537   92.0692   12.5995 C.ar    1  UNL1       -0.0035
     30 C          65.7162   92.2839   11.2709 C.ar    1  UNL1        0.0100
     31 C          67.2104   92.2148   11.1580 C.ar    1  UNL1        0.0684
     32 C          68.0420   91.9311   12.3738 C.ar    1  UNL1        0.0100
     33 C          67.3795   91.7164   13.7023 C.ar    1  UNL1       -0.0035
     34 C          67.8729   92.4295    9.8295 C.1     1  UNL1        0.1004
     35 N          68.5354   92.6441    8.5010 N.1     1  UNL1       -0.1908
@<TRIPOS>BOND
     1    11    12    1
     2    12    13    1
     3    13    14    1
     4    14    15    1
     5    15     5    1
     6     5     6   ar
     7     6     7   ar
     8     7     1    1
     9     1     2    1
    10     2     3    1
    11     3     4    1
    12     4    22    1
    13    22    23    2
    14    22    24   am
    15    24    26    1
    16    26    27    1
    17    27    28    1
    18    28    29   ar
    19    29    30   ar
    20    30    31   ar
    21    31    34    1
    22    34    35    3
    23    31    32   ar
    24    32    33   ar
    25     7     8   ar
    26     8     9   ar
    27     9    18    1
    28    18    19    1
    29    18    20    1
    30    18    21    1
    31     9    10   ar
    32    15    16    1
    33    16    17    1
    34    17    12    1
    35    10     5   ar
    36     4     1    1
    37    33    28   ar
    38    24    25    1
@<TRIPOS>MOLECULE
*****
 35 38 0 0 0
SMALL
GASTEIGER

@<TRIPOS>ATOM
      1 N          63.6239   87.5212   15.6014 N.pl3   1  UNL1       -0.2867
      2 C          62.9126   87.3451   16.9102 C.3     1  UNL1        0.0948
      3 C          63.1437   85.8649   16.8367 C.3     1  UNL1        0.0506
      4 C          63.8551   86.0409   15.5279 C.3     1  UNL1        0.1525
      5 C          65.4367   90.7728   14.2263 C.ar    1  UNL1        0.1362
      6 C          65.0971   89.6017   15.0998 C.ar    1  UNL1        0.0686
      7 C          63.9636   88.6924   14.7278 C.ar    1  UNL1        0.1364
      8 N          63.1697   88.9543   13.4824 N.ar    1  UNL1       -0.2083
      9 C          63.5093   90.1254   12.6090 C.ar    1  UNL1        0.2374
     10 N          64.6428   91.0347   12.9809 N.ar    1  UNL1       -0.2083
     11 C          69.9709   94.4099   15.7140 C.3     1  UNL1        0.0897
     12 N          68.8374   93.5006   15.3421 N.3     1  UNL1       -0.2686
     13 C          68.9674   92.5839   14.1619 C.3     1  UNL1        0.0939
     14 C          67.8339   91.6747   13.7900 C.3     1  UNL1        0.1095
     15 N          66.5703   91.6821   14.5982 N.pl3   1  UNL1       -0.2903
     16 C          66.4402   92.5987   15.7784 C.3     1  UNL1        0.1095
     17 C          67.5738   93.5080   16.1503 C.3     1  UNL1        0.0939
     18 C          62.7154   90.3874   11.3635 C.3     1  UNL1        0.4524
     19 F          61.9215   90.6493   10.1181 F       1  UNL1       -0.1632
     20 F          61.5906   89.5562   11.9057 F       1  UNL1       -0.1632
     21 F          63.8401   91.2185   10.8213 F       1  UNL1       -0.1632
     22 C          64.5215   85.1187   14.5505 C.2     1  UNL1        0.2406
     23 O          66.0156   84.9865   14.5429 O.2     1  UNL1       -0.2733
     24 N          63.6937   84.3287   13.5805 N.am    1  UNL1       -0.3027
     25 H          62.7131   84.4154   13.5855 H       1  UNL1        0.1495
     26 C          64.3601   83.4065   12.6031 C.3     1  UNL1        0.0941
     27 C          63.8522   83.3121   11.1949 C.3     1  UNL1        0.0476
     28 C          63.0476   84.4355   10.6110 C.ar    1  UNL1       -0.0204
     29 C          62.1123   85.2201   11.4824 C.ar    1  UNL1       -0.0035
     30 C          61.3077   86.3434   10.8984 C.ar    1  UNL1        0.0100
     31 C          61.4386   86.6820    9.4430 C.ar    1  UNL1        0.0684
     32 C          62.3740   85.8973    8.5716 C.ar    1  UNL1        0.0100
     33 C          63.1785   84.7741    9.1555 C.ar    1  UNL1       -0.0035
     34 C          60.6341   87.8053    8.8591 C.1     1  UNL1        0.1004
     35 N          59.8296   88.9285    8.2751 N.1     1  UNL1       -0.1908
@<TRIPOS>BOND
     1    11    12    1
     2    12    13    1
     3    13    14    1
     4    14    15    1
     5    15     5    1
     6     5     6   ar
     7     6     7   ar
     8     7     1    1
     9     1     2    1
    10     2     3    1
    11     3     4    1
    12     4    22    1
    13    22    23    2
    14    22    24   am
    15    24    26    1
    16    26    27    1
    17    27    28    1
    18    28    29   ar
    19    29    30   ar
    20    30    31   ar
    21    31    34    1
    22    34    35    3
    23    31    32   ar
    24    32    33   ar
    25     7     8   ar
    26     8     9   ar
    27     9    18    1
    28    18    19    1
    29    18    20    1
    30    18    21    1
    31     9    10   ar
    32    15    16    1
    33    16    17    1
    34    17    12    1
    35    10     5   ar
    36     4     1    1
    37    33    28   ar
    38    24    25    1
@<TRIPOS>MOLECULE
*****
 35 38 0 0 0
SMALL
GASTEIGER

@<TRIPOS>ATOM
      1 N          62.1304   86.7651   10.7606 N.pl3   1  UNL1       -0.2867
      2 C          61.6188   86.7988    9.3510 C.3     1  UNL1        0.0948
      3 C          61.5427   88.2955    9.4143 C.3     1  UNL1        0.0506
      4 C          62.0543   88.2619   10.8239 C.3     1  UNL1        0.1525
      5 C          62.9246   83.1655   12.2309 C.ar    1  UNL1        0.1362
      6 C          62.5091   84.2476   11.2789 C.ar    1  UNL1        0.0686
      7 C          62.5460   85.6830   11.7127 C.ar    1  UNL1        0.1364
      8 N          62.9985   86.0364   13.0985 N.ar    1  UNL1       -0.2083
      9 C          63.4140   84.9543   14.0504 C.ar    1  UNL1        0.2374
     10 N          63.3771   83.5188   13.6167 N.ar    1  UNL1       -0.2083
     11 C          62.7770   77.4237   10.4959 C.3     1  UNL1        0.0897
     12 N          62.8139   78.8592   10.9296 N.3     1  UNL1       -0.2686
     13 C          63.1206   79.9365    9.9320 C.3     1  UNL1        0.0939
     14 C          63.1575   81.3719   10.3658 C.3     1  UNL1        0.1095
     15 N          62.8877   81.7301   11.7972 N.pl3   1  UNL1       -0.2903
     16 C          62.5811   80.6527   12.7948 C.3     1  UNL1        0.1095
     17 C          62.5441   79.2173   12.3610 C.3     1  UNL1        0.0939
     18 C          63.8665   85.3076   15.4363 C.3     1  UNL1        0.4524
     19 F          64.3191   85.6609   16.8220 F       1  UNL1       -0.1632
     20 F          64.8888   86.2441   14.8637 F       1  UNL1       -0.1632
     21 F          62.8443   84.3711   16.0089 F       1  UNL1       -0.1632
     22 C          62.3623   89.2964   11.8655 C.2     1  UNL1        0.2406
     23 O          61.7292   90.6539   11.7844 O.2     1  UNL1       -0.2733
     24 N          63.3033   88.9736   12.9881 N.am    1  UNL1       -0.3027
     25 H          63.7188   88.0826   13.0413 H       1  UNL1        0.1495
     26 C          63.6113   90.0081   14.0297 C.3     1  UNL1        0.0941
     27 C          64.9986   90.5665   14.1448 C.3     1  UNL1        0.0476
     28 C          65.3798   91.7938   13.3711 C.ar    1  UNL1       -0.0204
     29 C          66.1450   92.8958   14.0419 C.ar    1  UNL1       -0.0035
     30 C          66.5262   94.1231   13.2682 C.ar    1  UNL1        0.0100
     31 C          66.1420   94.2483   11.8236 C.ar    1  UNL1        0.0684
     32 C          65.3768   93.1463   11.1528 C.ar    1  UNL1        0.0100
     33 C          64.9956   91.9191   11.9265 C.ar    1  UNL1       -0.0035
     34 C          66.5231   95.4755   11.0499 C.1     1  UNL1        0.1004
     35 N          66.9042   96.7027   10.2762 N.1     1  UNL1       -0.1908
@<TRIPOS>BOND
     1    11    12    1
     2    12    13    1
     3    13    14    1
     4    14    15    1
     5    15     5    1
     6     5     6   ar
     7     6     7   ar
     8     7     1    1
     9     1     2    1
    10     2     3    1
    11     3     4    1
    12     4    22    1
    13    22    23    2
    14    22    24   am
    15    24    26    1
    16    26    27    1
    17    27    28    1
    18    28    29   ar
    19    29    30   ar
    20    30    31   ar
    21    31    34    1
    22    34    35    3
    23    31    32   ar
    24    32    33   ar
    25     7     8   ar
    26     8     9   ar
    27     9    18    1
    28    18    19    1
    29    18    20    1
    30    18    21    1
    31     9    10   ar
    32    15    16    1
    33    16    17    1
    34    17    12    1
    35    10     5   ar
    36     4     1    1
    37    33    28   ar
    38    24    25    1
@<TRIPOS>MOLECULE
*****
 35 38 0 0 0
SMALL
GASTEIGER

@<TRIPOS>ATOM
      1 N          61.1520   86.9912    9.8262 N.pl3   1  UNL1       -0.2867
      2 C          60.4078   86.4065    8.6624 C.3     1  UNL1        0.0948
      3 C          60.1011   87.7878    8.1645 C.3     1  UNL1        0.0506
      4 C          60.8452   88.3725    9.3282 C.3     1  UNL1        0.1525
      5 C          62.5974   84.3912   12.4530 C.ar    1  UNL1        0.1362
      6 C          61.8544   84.9544   11.2780 C.ar    1  UNL1        0.0686
      7 C          61.8951   86.4280   11.0012 C.ar    1  UNL1        0.1364
      8 N          62.6788   87.3385   11.8994 N.ar    1  UNL1       -0.2083
      9 C          63.4219   86.7753   13.0744 C.ar    1  UNL1        0.2374
     10 N          63.3812   85.3016   13.3512 N.ar    1  UNL1       -0.2083
     11 C          62.4346   78.4965   13.5603 C.3     1  UNL1        0.0897
     12 N          62.4753   79.9701   13.2835 N.3     1  UNL1       -0.2686
     13 C          62.0629   80.9446   14.3466 C.3     1  UNL1        0.0939
     14 C          62.1036   82.4183   14.0698 C.3     1  UNL1        0.1095
     15 N          62.5567   82.9175   12.7298 N.pl3   1  UNL1       -0.2903
     16 C          62.9691   81.9430   11.6667 C.3     1  UNL1        0.1095
     17 C          62.9284   80.4693   11.9436 C.3     1  UNL1        0.0939
     18 C          64.2057   87.6858   13.9726 C.3     1  UNL1        0.4524
     19 F          64.9894   88.5962   14.8708 F       1  UNL1       -0.1632
     20 F          63.7603   88.8675   13.1633 F       1  UNL1       -0.1632
     21 F          64.6511   86.5040   14.7819 F       1  UNL1       -0.1632
     22 C          61.1545   89.7627    9.7990 C.2     1  UNL1        0.2406
     23 O          60.0439   90.7506   10.0011 O.2     1  UNL1       -0.2733
     24 N          62.5743   90.1651   10.0678 N.am    1  UNL1       -0.3027
     25 H          63.3032   89.5168    9.9351 H       1  UNL1        0.1495
     26 C          62.8836   91.5553   10.5386 C.3     1  UNL1        0.0941
     27 C          64.2752   92.0994   10.4071 C.3     1  UNL1        0.0476
     28 C          65.1903   92.1138   11.5956 C.ar    1  UNL1       -0.0204
     29 C          64.6583   91.7731   12.9560 C.ar    1  UNL1       -0.0035
     30 C          65.5734   91.7874   14.1444 C.ar    1  UNL1        0.0100
     31 C          67.0206   92.1424   13.9724 C.ar    1  UNL1        0.0684
     32 C          67.5527   92.4831   12.6119 C.ar    1  UNL1        0.0100
     33 C          66.6375   92.4688   11.4235 C.ar    1  UNL1       -0.0035
     34 C          67.9357   92.1568   15.1608 C.1     1  UNL1        0.1004
     35 N          68.8509   92.1711   16.3492 N.1     1  UNL1       -0.1908
@<TRIPOS>BOND
     1    11    12    1
     2    12    13    1
     3    13    14    1
     4    14    15    1
     5    15     5    1
     6     5     6   ar
     7     6     7   ar
     8     7     1    1
     9     1     2    1
    10     2     3    1
    11     3     4    1
    12     4    22    1
    13    22    23    2
    14    22    24   am
    15    24    26    1
    16    26    27    1
    17    27    28    1
    18    28    29   ar
    19    29    30   ar
    20    30    31   ar
    21    31    34    1
    22    34    35    3
    23    31    32   ar
    24    32    33   ar
    25     7     8   ar
    26     8     9   ar
    27     9    18    1
    28    18    19    1
    29    18    20    1
    30    18    21    1
    31     9    10   ar
    32    15    16    1
    33    16    17    1
    34    17    12    1
    35    10     5   ar
    36     4     1    1
    37    33    28   ar
    38    24    25    1
