@<TRIPOS>MOLECULE
*****
 59 65 0 0 0
SMALL
GASTEIGER

@<TRIPOS>ATOM
      1 N          65.6319   89.9663   13.8555 N.3     1  UNL1       -0.1862
      2 C          66.0606   88.8251   14.7294 C.3     1  UNL1        0.1775
      3 C          65.2727   87.5488   14.7365 C.2     1  UNL1        0.2452
      4 O          65.7014   86.4075   15.6106 O.2     1  UNL1       -0.2732
      5 N          64.0561   87.4135   13.8695 N.am    1  UNL1       -0.2541
      6 C          63.2682   86.1372   13.8766 C.3     1  UNL1        0.1577
      7 C          62.0517   86.0019   13.0096 C.2     1  UNL1        0.2445
      8 O          61.2638   84.7256   13.0167 O.2     1  UNL1       -0.2731
      9 N          61.6230   87.1432   12.1356 N.am    1  UNL1       -0.2705
     10 C          62.4109   88.4195   12.1285 C.3     1  UNL1        0.1359
     11 C          63.6275   88.5547   12.9956 C.3     1  UNL1        0.1908
     12 N          64.4154   89.8311   12.9885 N.am    1  UNL1       -0.1863
     13 C          63.9867   90.9723   12.1144 C.2     1  UNL1        0.3191
     14 O          62.7701   90.8371   11.2475 O.2     1  UNL1       -0.2512
     15 N          64.7746   92.2487   12.1074 N.am    1  UNL1       -0.2836
     16 H          65.5730   92.3374   12.6764 H       1  UNL1        0.1513
     17 C          66.4198   91.2427   13.8484 C.3     1  UNL1        0.1188
     18 C          66.8566   92.6942   15.9585 C.2     1  UNL1       -0.0034
     19 C          67.2800   91.5996   15.0243 C.2     1  UNL1       -0.0071
     20 C          63.6969   84.9960   14.7506 C.3     1  UNL1        0.0556
     21 C          63.4182   83.5834   14.3300 C.ar    1  UNL1       -0.0198
     22 C          62.2661   82.8350   14.9321 C.ar    1  UNL1       -0.0011
     23 C          61.9874   81.4224   14.5115 C.ar    1  UNL1        0.0363
     24 C          62.8608   80.7582   13.4889 C.ar    1  UNL1        0.1337
     25 O          62.5822   79.3456   13.0683 O.3     1  UNL1       -0.5055
     26 C          64.0131   81.5065   12.8868 C.ar    1  UNL1        0.0363
     27 C          64.2918   82.9191   13.3074 C.ar    1  UNL1       -0.0011
     28 H          61.8624   78.8781   13.4444 H       1  UNL1        0.2922
     29 C          60.4064   87.0079   11.2686 C.3     1  UNL1        0.1217
     30 C          60.5314   87.1200    9.7780 C.ar    1  UNL1        0.0135
     31 C          61.0057   85.9453    8.9748 C.ar    1  UNL1       -0.0012
     32 C          61.1307   86.0573    7.4842 C.ar    1  UNL1       -0.0002
     33 C          60.7815   87.3440    6.7969 C.ar    1  UNL1        0.0016
     34 C          60.3073   88.5187    7.6002 C.ar    1  UNL1        0.0214
     35 C          59.8937   89.9048    7.2032 C.ar    1  UNL1        0.0719
     36 C          59.5131   90.6495    8.4484 C.ar    1  UNL1        0.0805
     37 N          59.6914   89.7236    9.6149 N.ar    1  UNL1       -0.3241
     38 C          59.4256   90.0562   11.0532 C.3     1  UNL1        0.1305
     39 C          60.1822   88.4067    9.0907 C.ar    1  UNL1        0.0577
     40 C          59.8658   90.4505    5.8062 C.2     1  UNL1        0.2473
     41 O          58.6613   90.2313    4.9394 O.2     1  UNL1       -0.2701
     42 N          61.0422   91.2154    5.2760 N.am    1  UNL1       -0.3023
     43 H          61.8327   91.3592    5.8450 H       1  UNL1        0.1497
     44 C          61.0143   91.7610    3.8791 C.3     1  UNL1        0.0753
     45 C          62.2090   91.5992    2.9868 C.3     1  UNL1        0.0411
     46 C          62.1812   92.1448    1.5898 C.3     1  UNL1        0.0951
     47 N          60.9586   92.8524    1.0853 N.am    1  UNL1       -0.2794
     48 C          60.9307   93.3980   -0.3117 C.2     1  UNL1        0.2261
     49 C          62.1254   93.2362   -1.2041 C.3     1  UNL1        0.0948
     50 O          59.7081   94.1056   -0.8162 O.2     1  UNL1       -0.2749
     51 C          59.7638   93.0142    1.9776 C.3     1  UNL1        0.0951
     52 C          59.7916   92.4686    3.3746 C.3     1  UNL1        0.0411
     53 C          64.3459   93.3899   11.2334 C.3     1  UNL1        0.1177
     54 C          65.3755   94.2253   10.5320 C.ar    1  UNL1       -0.0025
     55 C          65.2220   95.7165   10.4789 C.ar    1  UNL1       -0.0026
     56 C          66.2517   96.5519    9.7775 C.ar    1  UNL1       -0.0003
     57 C          67.4348   95.8962    9.1293 C.ar    1  UNL1       -0.0000
     58 C          67.5884   94.4050    9.1825 C.ar    1  UNL1       -0.0003
     59 C          66.5587   93.5695    9.8838 C.ar    1  UNL1       -0.0026
@<TRIPOS>BOND
     1    18    19    2
     2    19    17    1
     3    17     1    1
     4     1     2    1
     5     2     3    1
     6     3     4    2
     7     3     5   am
     8     5     6    1
     9     6    20    1
    10    20    21    1
    11    21    22   ar
    12    22    23   ar
    13    23    24   ar
    14    24    25    1
    15    24    26   ar
    16    26    27   ar
    17     6     7    1
    18     7     8    2
    19     7     9   am
    20     9    29    1
    21    29    30    1
    22    30    31   ar
    23    31    32   ar
    24    32    33   ar
    25    33    34   ar
    26    34    35   ar
    27    35    40    1
    28    40    41    2
    29    40    42   am
    30    42    44    1
    31    44    45    1
    32    45    46    1
    33    46    47    1
    34    47    48   am
    35    48    49    1
    36    48    50    2
    37    47    51    1
    38    51    52    1
    39    35    36   ar
    40    36    37   ar
    41    37    38    1
    42    37    39   ar
    43     9    10    1
    44    11    10    1
    45    11    12    1
    46    12    13   am
    47    13    14    2
    48    13    15   am
    49    15    53    1
    50    53    54    1
    51    54    55   ar
    52    55    56   ar
    53    56    57   ar
    54    57    58   ar
    55    58    59   ar
    56    12     1    1
    57    59    54   ar
    58    11     5    1
    59    27    21   ar
    60    39    30   ar
    61    39    34   ar
    62    52    44    1
    63    25    28    1
    64    42    43    1
    65    15    16    1
@<TRIPOS>MOLECULE
*****
 59 65 0 0 0
SMALL
GASTEIGER

@<TRIPOS>ATOM
      1 N          65.2930   89.3313   14.5532 N.3     1  UNL1       -0.1862
      2 C          65.5003   88.0746   15.3455 C.3     1  UNL1        0.1775
      3 C          64.7361   86.8324   14.9951 C.2     1  UNL1        0.2452
      4 O          64.9435   85.5757   15.7875 O.2     1  UNL1       -0.2732
      5 N          63.7644   86.8468   13.8525 N.am    1  UNL1       -0.2541
      6 C          63.0002   85.6046   13.5021 C.3     1  UNL1        0.1577
      7 C          62.0285   85.6190   12.3595 C.2     1  UNL1        0.2445
      8 O          61.2643   84.3768   12.0091 O.2     1  UNL1       -0.2731
      9 N          61.8211   86.8758   11.5671 N.am    1  UNL1       -0.2705
     10 C          62.5854   88.1180   11.9175 C.3     1  UNL1        0.1359
     11 C          63.5571   88.1035   13.0602 C.3     1  UNL1        0.1908
     12 N          64.3213   89.3457   13.4106 N.am    1  UNL1       -0.1863
     13 C          64.1139   90.6024   12.6183 C.2     1  UNL1        0.3191
     14 O          63.1423   90.6169   11.4756 O.2     1  UNL1       -0.2512
     15 N          64.8782   91.8447   12.9686 N.am    1  UNL1       -0.2836
     16 H          65.5159   91.8352   13.7186 H       1  UNL1        0.1513
     17 C          66.0572   90.5735   14.9036 C.3     1  UNL1        0.1188
     18 C          68.0163   92.1939   14.3687 C.2     1  UNL1       -0.0034
     19 C          67.3972   90.8304   14.2806 C.2     1  UNL1       -0.0071
     20 C          63.2075   84.3479   14.2944 C.3     1  UNL1        0.0556
     21 C          63.0583   83.0104   13.6319 C.ar    1  UNL1       -0.0198
     22 C          63.8317   82.7009   12.3845 C.ar    1  UNL1       -0.0011
     23 C          63.6825   81.3634   11.7220 C.ar    1  UNL1        0.0363
     24 C          62.7600   80.3355   12.3070 C.ar    1  UNL1        0.1337
     25 O          62.6108   78.9980   11.6445 O.3     1  UNL1       -0.5055
     26 C          61.9866   80.6450   13.5544 C.ar    1  UNL1        0.0363
     27 C          62.1357   81.9825   14.2169 C.ar    1  UNL1       -0.0011
     28 H          63.0939   78.8046   10.8653 H       1  UNL1        0.2922
     29 C          60.8495   86.8902   10.4245 C.3     1  UNL1        0.1217
     30 C          60.4327   88.1940    9.8108 C.ar    1  UNL1        0.0135
     31 C          60.1528   89.3794   10.6861 C.ar    1  UNL1       -0.0012
     32 C          59.7361   90.6832   10.0725 C.ar    1  UNL1       -0.0002
     33 C          59.5993   90.8014    8.5835 C.ar    1  UNL1        0.0016
     34 C          59.8792   89.6159    7.7081 C.ar    1  UNL1        0.0214
     35 C          59.8290   89.4328    6.2202 C.ar    1  UNL1        0.0719
     36 C          60.2147   88.0159    5.9142 C.ar    1  UNL1        0.0805
     37 N          60.5033   87.3234    7.2131 N.ar    1  UNL1       -0.3241
     38 C          60.9252   85.8930    7.3749 C.3     1  UNL1        0.1305
     39 C          60.2959   88.3122    8.3217 C.ar    1  UNL1        0.0577
     40 C          59.4582   90.4824    5.2146 C.2     1  UNL1        0.2473
     41 O          58.0186   90.8523    5.0128 O.2     1  UNL1       -0.2701
     42 N          60.5269   91.1620    4.4110 N.am    1  UNL1       -0.3023
     43 H          61.4718   90.9191    4.5434 H       1  UNL1        0.1497
     44 C          60.1562   92.2115    3.4055 C.3     1  UNL1        0.0753
     45 C          59.5163   91.8144    2.1082 C.3     1  UNL1        0.0411
     46 C          59.1455   92.8639    1.1027 C.3     1  UNL1        0.0951
     47 N          59.4146   94.3104    1.3944 N.am    1  UNL1       -0.2794
     48 C          59.0439   95.3599    0.3890 C.2     1  UNL1        0.2261
     49 C          58.4040   94.9629   -0.9084 C.3     1  UNL1        0.0948
     50 O          59.3130   96.8065    0.6807 O.2     1  UNL1       -0.2749
     51 C          60.0545   94.7075    2.6917 C.3     1  UNL1        0.0951
     52 C          60.4253   93.6580    3.6972 C.3     1  UNL1        0.0411
     53 C          64.6708   93.1013   12.1764 C.3     1  UNL1        0.1177
     54 C          65.7159   93.5534   11.1999 C.ar    1  UNL1       -0.0025
     55 C          65.8109   95.0013   10.8198 C.ar    1  UNL1       -0.0026
     56 C          66.8559   95.4533    9.8433 C.ar    1  UNL1       -0.0003
     57 C          67.8060   94.4575    9.2469 C.ar    1  UNL1       -0.0000
     58 C          67.7110   93.0095    9.6270 C.ar    1  UNL1       -0.0003
     59 C          66.6659   92.5574   10.6035 C.ar    1  UNL1       -0.0026
@<TRIPOS>BOND
     1    18    19    2
     2    19    17    1
     3    17     1    1
     4     1     2    1
     5     2     3    1
     6     3     4    2
     7     3     5   am
     8     5     6    1
     9     6    20    1
    10    20    21    1
    11    21    22   ar
    12    22    23   ar
    13    23    24   ar
    14    24    25    1
    15    24    26   ar
    16    26    27   ar
    17     6     7    1
    18     7     8    2
    19     7     9   am
    20     9    29    1
    21    29    30    1
    22    30    31   ar
    23    31    32   ar
    24    32    33   ar
    25    33    34   ar
    26    34    35   ar
    27    35    40    1
    28    40    41    2
    29    40    42   am
    30    42    44    1
    31    44    45    1
    32    45    46    1
    33    46    47    1
    34    47    48   am
    35    48    49    1
    36    48    50    2
    37    47    51    1
    38    51    52    1
    39    35    36   ar
    40    36    37   ar
    41    37    38    1
    42    37    39   ar
    43     9    10    1
    44    11    10    1
    45    11    12    1
    46    12    13   am
    47    13    14    2
    48    13    15   am
    49    15    53    1
    50    53    54    1
    51    54    55   ar
    52    55    56   ar
    53    56    57   ar
    54    57    58   ar
    55    58    59   ar
    56    12     1    1
    57    59    54   ar
    58    11     5    1
    59    27    21   ar
    60    39    30   ar
    61    39    34   ar
    62    52    44    1
    63    25    28    1
    64    42    43    1
    65    15    16    1
@<TRIPOS>MOLECULE
*****
 59 65 0 0 0
SMALL
GASTEIGER

@<TRIPOS>ATOM
      1 N          64.0363   90.1683   12.1536 N.3     1  UNL1       -0.1862
      2 C          63.8105   88.7805   12.6758 C.3     1  UNL1        0.1775
      3 C          62.7954   87.8896   12.0232 C.2     1  UNL1        0.2452
      4 O          62.5695   86.5016   12.5455 O.2     1  UNL1       -0.2732
      5 N          62.0061   88.3865   10.8485 N.am    1  UNL1       -0.2541
      6 C          60.9910   87.4956   10.1959 C.3     1  UNL1        0.1577
      7 C          60.2018   87.9926    9.0212 C.2     1  UNL1        0.2445
      8 O          59.1867   87.1017    8.3686 O.2     1  UNL1       -0.2731
      9 N          60.4276   89.3805    8.4989 N.am    1  UNL1       -0.2705
     10 C          61.4427   90.2714    9.1515 C.3     1  UNL1        0.1359
     11 C          62.2320   89.7744   10.3263 C.3     1  UNL1        0.1908
     12 N          63.2471   90.6653   10.9789 N.am    1  UNL1       -0.1863
     13 C          63.4729   92.0533   10.4566 C.2     1  UNL1        0.3191
     14 O          62.6837   92.5502    9.2819 O.2     1  UNL1       -0.2512
     15 N          64.4881   92.9442   11.1092 N.am    1  UNL1       -0.2836
     16 H          65.0061   92.6180   11.8802 H       1  UNL1        0.1513
     17 C          65.0514   91.0593   12.8062 C.3     1  UNL1        0.1188
     18 C          66.6109   91.5323   14.8296 C.2     1  UNL1       -0.0034
     19 C          65.3930   90.8719   14.2547 C.2     1  UNL1       -0.0071
     20 C          60.7652   86.1077   10.7181 C.3     1  UNL1        0.0556
     21 C          61.8183   85.0559   10.5324 C.ar    1  UNL1       -0.0198
     22 C          62.7058   85.0883    9.3236 C.ar    1  UNL1       -0.0011
     23 C          63.7589   84.0365    9.1379 C.ar    1  UNL1        0.0363
     24 C          63.9246   82.9522   10.1610 C.ar    1  UNL1        0.1337
     25 O          64.9778   81.9003    9.9753 O.3     1  UNL1       -0.5055
     26 C          63.0371   82.9197   11.3699 C.ar    1  UNL1        0.0363
     27 C          61.9840   83.9716   11.5556 C.ar    1  UNL1       -0.0011
     28 H          65.5321   81.9206    9.2201 H       1  UNL1        0.2922
     29 C          59.6384   89.8775    7.3242 C.3     1  UNL1        0.1217
     30 C          60.3471   90.4521    6.1335 C.ar    1  UNL1        0.0135
     31 C          61.8411   90.3627    6.0347 C.ar    1  UNL1       -0.0012
     32 C          62.5498   90.9373    4.8441 C.ar    1  UNL1       -0.0002
     33 C          61.7644   91.6012    3.7522 C.ar    1  UNL1        0.0016
     34 C          60.2703   91.6906    3.8510 C.ar    1  UNL1        0.0214
     35 C          59.2377   92.2819    2.9377 C.ar    1  UNL1        0.0719
     36 C          57.8908   92.0727    3.5639 C.ar    1  UNL1        0.0805
     37 N          58.0910   91.3522    4.8642 N.ar    1  UNL1       -0.3241
     38 C          57.0104   90.9402    5.8193 C.3     1  UNL1        0.1305
     39 C          59.5616   91.1161    5.0416 C.ar    1  UNL1        0.0577
     40 C          59.5050   92.9628    1.6281 C.2     1  UNL1        0.2473
     41 O          59.6824   94.4514    1.5792 O.2     1  UNL1       -0.2701
     42 N          59.5949   92.1550    0.3674 N.am    1  UNL1       -0.3023
     43 H          59.4785   91.1779    0.3995 H       1  UNL1        0.1497
     44 C          59.8622   92.8357   -0.9422 C.3     1  UNL1        0.0753
     45 C          58.7391   93.0702   -1.9085 C.3     1  UNL1        0.0411
     46 C          59.0064   93.7510   -3.2181 C.3     1  UNL1        0.0951
     47 N          60.3966   94.1973   -3.5614 N.am    1  UNL1       -0.2794
     48 C          60.6640   94.8781   -4.8710 C.2     1  UNL1        0.2261
     49 C          59.5409   95.1126   -5.8374 C.3     1  UNL1        0.0948
     50 O          62.0542   95.3244   -5.2143 O.2     1  UNL1       -0.2749
     51 C          61.5197   93.9628   -2.5951 C.3     1  UNL1        0.0951
     52 C          61.2525   93.2821   -1.2855 C.3     1  UNL1        0.0411
     53 C          64.7139   94.3321   10.5870 C.3     1  UNL1        0.1177
     54 C          65.9217   94.6309    9.7492 C.ar    1  UNL1       -0.0025
     55 C          66.9967   93.5973    9.5875 C.ar    1  UNL1       -0.0026
     56 C          68.2045   93.8962    8.7497 C.ar    1  UNL1       -0.0003
     57 C          68.3374   95.2285    8.0737 C.ar    1  UNL1       -0.0000
     58 C          67.2624   96.2621    8.2353 C.ar    1  UNL1       -0.0003
     59 C          66.0546   95.9633    9.0731 C.ar    1  UNL1       -0.0026
@<TRIPOS>BOND
     1    18    19    2
     2    19    17    1
     3    17     1    1
     4     1     2    1
     5     2     3    1
     6     3     4    2
     7     3     5   am
     8     5     6    1
     9     6    20    1
    10    20    21    1
    11    21    22   ar
    12    22    23   ar
    13    23    24   ar
    14    24    25    1
    15    24    26   ar
    16    26    27   ar
    17     6     7    1
    18     7     8    2
    19     7     9   am
    20     9    29    1
    21    29    30    1
    22    30    31   ar
    23    31    32   ar
    24    32    33   ar
    25    33    34   ar
    26    34    35   ar
    27    35    40    1
    28    40    41    2
    29    40    42   am
    30    42    44    1
    31    44    45    1
    32    45    46    1
    33    46    47    1
    34    47    48   am
    35    48    49    1
    36    48    50    2
    37    47    51    1
    38    51    52    1
    39    35    36   ar
    40    36    37   ar
    41    37    38    1
    42    37    39   ar
    43     9    10    1
    44    11    10    1
    45    11    12    1
    46    12    13   am
    47    13    14    2
    48    13    15   am
    49    15    53    1
    50    53    54    1
    51    54    55   ar
    52    55    56   ar
    53    56    57   ar
    54    57    58   ar
    55    58    59   ar
    56    12     1    1
    57    59    54   ar
    58    11     5    1
    59    27    21   ar
    60    39    30   ar
    61    39    34   ar
    62    52    44    1
    63    25    28    1
    64    42    43    1
    65    15    16    1
@<TRIPOS>MOLECULE
*****
 59 65 0 0 0
SMALL
GASTEIGER

@<TRIPOS>ATOM
      1 N          64.5572   83.1868   13.2457 N.3     1  UNL1       -0.1862
      2 C          65.1762   84.0624   14.2945 C.3     1  UNL1        0.1775
      3 C          64.7590   85.4982   14.4146 C.2     1  UNL1        0.2452
      4 O          65.3781   86.3739   15.4635 O.2     1  UNL1       -0.2732
      5 N          63.7229   86.0584   13.4858 N.am    1  UNL1       -0.2541
      6 C          63.3058   87.4942   13.6059 C.3     1  UNL1        0.1577
      7 C          62.2697   88.0544   12.6771 C.2     1  UNL1        0.2445
      8 O          61.8526   89.4903   12.7972 O.2     1  UNL1       -0.2731
      9 N          61.6507   87.1788   11.6282 N.am    1  UNL1       -0.2705
     10 C          62.0678   85.7430   11.5082 C.3     1  UNL1        0.1359
     11 C          63.1040   85.1828   12.4370 C.3     1  UNL1        0.1908
     12 N          63.5211   83.7470   12.3169 N.am    1  UNL1       -0.1863
     13 C          62.9021   82.8713   11.2680 C.2     1  UNL1        0.3191
     14 O          61.8660   83.4315   10.3393 O.2     1  UNL1       -0.2512
     15 N          63.3192   81.4355   11.1479 N.am    1  UNL1       -0.2836
     16 H          63.9992   81.0678   11.7575 H       1  UNL1        0.1513
     17 C          64.9743   81.7509   13.1256 C.3     1  UNL1        0.1188
     18 C          62.8036   80.8336   14.2194 C.2     1  UNL1       -0.0034
     19 C          64.2675   80.6954   13.9232 C.2     1  UNL1       -0.0071
     20 C          63.9248   88.3699   14.6547 C.3     1  UNL1        0.0556
     21 C          64.5273   89.6888   14.2707 C.ar    1  UNL1       -0.0198
     22 C          64.2339   90.2841   12.9255 C.ar    1  UNL1       -0.0011
     23 C          64.8365   91.6030   12.5415 C.ar    1  UNL1        0.0363
     24 C          65.7324   92.3265   13.5026 C.ar    1  UNL1        0.1337
     25 O          66.3349   93.6454   13.1185 O.3     1  UNL1       -0.5055
     26 C          66.0258   91.7312   14.8478 C.ar    1  UNL1        0.0363
     27 C          65.4233   90.4123   15.2318 C.ar    1  UNL1       -0.0011
     28 H          66.1516   94.0173   12.2782 H       1  UNL1        0.2922
     29 C          60.6146   87.7390   10.6995 C.3     1  UNL1        0.1217
     30 C          60.9653   88.8708    9.7795 C.ar    1  UNL1        0.0135
     31 C          62.0011   89.8758   10.1880 C.ar    1  UNL1       -0.0012
     32 C          62.3519   91.0075    9.2682 C.ar    1  UNL1       -0.0002
     33 C          61.6668   91.1342    7.9398 C.ar    1  UNL1        0.0016
     34 C          60.6309   90.1291    7.5313 C.ar    1  UNL1        0.0214
     35 C          59.7944   89.9965    6.2934 C.ar    1  UNL1        0.0719
     36 C          58.9266   88.7828    6.4482 C.ar    1  UNL1        0.0805
     37 N          59.2269   88.1653    7.7817 N.ar    1  UNL1       -0.3241
     38 C          58.5863   86.9323    8.3467 C.3     1  UNL1        0.1305
     39 C          60.2802   88.9974    8.4512 C.ar    1  UNL1        0.0577
     40 C          59.8209   90.9161    5.1086 C.2     1  UNL1        0.2473
     41 O          58.5416   91.4905    4.5762 O.2     1  UNL1       -0.2701
     42 N          61.1268   91.2614    4.4563 N.am    1  UNL1       -0.3023
     43 H          61.9664   90.8844    4.8057 H       1  UNL1        0.1497
     44 C          61.1534   92.1810    3.2715 C.3     1  UNL1        0.0753
     45 C          62.3266   92.1662    2.3370 C.3     1  UNL1        0.0411
     46 C          62.3533   93.0858    1.1522 C.3     1  UNL1        0.0951
     47 N          61.2068   94.0201    0.9020 N.am    1  UNL1       -0.2794
     48 C          61.2334   94.9397   -0.2827 C.2     1  UNL1        0.2261
     49 C          62.4066   94.9251   -1.2173 C.3     1  UNL1        0.0948
     50 O          60.0869   95.8740   -0.5328 O.2     1  UNL1       -0.2749
     51 C          60.0336   94.0349    1.8366 C.3     1  UNL1        0.0951
     52 C          60.0069   93.1153    3.0214 C.3     1  UNL1        0.0411
     53 C          62.7002   80.5599   10.0991 C.3     1  UNL1        0.1177
     54 C          63.0865   79.1134   10.0061 C.ar    1  UNL1       -0.0025
     55 C          62.5315   78.1243   10.9877 C.ar    1  UNL1       -0.0026
     56 C          62.9177   76.6779   10.8947 C.ar    1  UNL1       -0.0003
     57 C          63.8590   76.2206    9.8201 C.ar    1  UNL1       -0.0000
     58 C          64.4140   77.2097    8.8384 C.ar    1  UNL1       -0.0003
     59 C          64.0277   78.6561    8.9314 C.ar    1  UNL1       -0.0026
@<TRIPOS>BOND
     1    18    19    2
     2    19    17    1
     3    17     1    1
     4     1     2    1
     5     2     3    1
     6     3     4    2
     7     3     5   am
     8     5     6    1
     9     6    20    1
    10    20    21    1
    11    21    22   ar
    12    22    23   ar
    13    23    24   ar
    14    24    25    1
    15    24    26   ar
    16    26    27   ar
    17     6     7    1
    18     7     8    2
    19     7     9   am
    20     9    29    1
    21    29    30    1
    22    30    31   ar
    23    31    32   ar
    24    32    33   ar
    25    33    34   ar
    26    34    35   ar
    27    35    40    1
    28    40    41    2
    29    40    42   am
    30    42    44    1
    31    44    45    1
    32    45    46    1
    33    46    47    1
    34    47    48   am
    35    48    49    1
    36    48    50    2
    37    47    51    1
    38    51    52    1
    39    35    36   ar
    40    36    37   ar
    41    37    38    1
    42    37    39   ar
    43     9    10    1
    44    11    10    1
    45    11    12    1
    46    12    13   am
    47    13    14    2
    48    13    15   am
    49    15    53    1
    50    53    54    1
    51    54    55   ar
    52    55    56   ar
    53    56    57   ar
    54    57    58   ar
    55    58    59   ar
    56    12     1    1
    57    59    54   ar
    58    11     5    1
    59    27    21   ar
    60    39    30   ar
    61    39    34   ar
    62    52    44    1
    63    25    28    1
    64    42    43    1
    65    15    16    1
