@<TRIPOS>MOLECULE
*****
 60 66 0 0 0
SMALL
GASTEIGER

@<TRIPOS>ATOM
      1 N          63.7672   85.9589   16.0397 N.3     1  UNL1       -0.1862
      2 C          63.8813   84.4772   16.2433 C.3     1  UNL1        0.1775
      3 C          63.7673   83.5480   15.0713 C.2     1  UNL1        0.2452
      4 O          63.8814   82.0663   15.2750 O.2     1  UNL1       -0.2732
      5 N          63.5391   84.1006   13.6956 N.am    1  UNL1       -0.2541
      6 C          63.4251   83.1714   12.5235 C.3     1  UNL1        0.1577
      7 C          63.1969   83.7240   11.1479 C.2     1  UNL1        0.2445
      8 O          63.0829   82.7948    9.9758 O.2     1  UNL1       -0.2731
      9 N          63.0828   85.2057   10.9441 N.am    1  UNL1       -0.2705
     10 C          63.1968   86.1349   12.1162 C.3     1  UNL1        0.1359
     11 C          63.4250   85.5823   13.4919 C.3     1  UNL1        0.1908
     12 N          63.5390   86.5114   14.6640 N.am    1  UNL1       -0.1863
     13 C          63.4248   87.9932   14.4603 C.2     1  UNL1        0.3191
     14 O          63.1967   88.5457   13.0846 O.2     1  UNL1       -0.2512
     15 N          63.5389   88.9223   15.6323 N.am    1  UNL1       -0.2836
     16 H          63.6886   88.5597   16.5352 H       1  UNL1        0.1513
     17 C          63.8812   86.8880   17.2117 C.3     1  UNL1        0.1188
     18 C          62.7083   87.0927   19.5209 C.2     1  UNL1       -0.0034
     19 C          62.6665   87.2196   18.0269 C.2     1  UNL1       -0.0071
     20 C          63.5392   81.6897   12.7272 C.3     1  UNL1        0.0556
     21 C          62.3464   80.9008   13.1798 C.ar    1  UNL1       -0.0198
     22 C          61.1301   81.6103   13.6966 C.ar    1  UNL1       -0.0011
     23 C          59.9373   80.8213   14.1492 C.ar    1  UNL1        0.0363
     24 C          59.9609   79.3229   14.0850 C.ar    1  UNL1        0.1337
     25 O          58.7681   78.5340   14.5376 O.3     1  UNL1       -0.5055
     26 C          61.1773   78.6134   13.5682 C.ar    1  UNL1        0.0363
     27 C          62.3701   79.4023   13.1156 C.ar    1  UNL1       -0.0011
     28 H          58.0083   78.9772   14.8604 H       1  UNL1        0.2922
     29 C          62.8546   85.7583    9.5684 C.3     1  UNL1        0.1217
     30 C          62.1234   87.0563    9.3933 C.ar    1  UNL1        0.0135
     31 C          62.4475   88.2247   10.2763 C.ar    1  UNL1       -0.0012
     32 C          61.7164   89.5227   10.1011 C.ar    1  UNL1       -0.0002
     33 C          60.6612   89.6522    9.0430 C.ar    1  UNL1        0.0016
     34 C          60.3371   88.4838    8.1600 C.ar    1  UNL1        0.0214
     35 C          59.3537   88.3144    7.0400 C.ar    1  UNL1        0.0721
     36 C          59.4772   86.9118    6.5230 C.ar    1  UNL1        0.0805
     37 N          60.5367   86.2143    7.3234 N.ar    1  UNL1       -0.3241
     38 C          60.9860   84.7945    7.1437 C.3     1  UNL1        0.1305
     39 C          61.0682   87.1858    8.3351 C.ar    1  UNL1        0.0577
     40 C          58.4122   89.3636    6.5271 C.2     1  UNL1        0.2506
     41 O          56.9696   89.3420    6.9376 O.2     1  UNL1       -0.2699
     42 N          58.9134   90.4342    5.6038 N.am    1  UNL1       -0.2732
     43 C          57.9720   91.4833    5.0909 C.3     1  UNL1        0.1110
     44 C          58.4732   92.5540    4.1675 C.3     1  UNL1        0.0939
     45 N          59.9158   92.5755    3.7571 N.3     1  UNL1       -0.2698
     46 C          60.8572   91.5263    4.2700 C.3     1  UNL1        0.0939
     47 C          60.3560   90.4557    5.1934 C.3     1  UNL1        0.1110
     48 C          60.4169   93.6462    2.8337 C.3     1  UNL1        0.0723
     49 C          61.2697   93.2812    1.6550 C.3     1  UNL1        0.0199
     50 C          62.6768   93.7923    1.5604 C.3     1  UNL1        0.0332
     51 C          63.8302   92.8594    1.7819 C.3     1  UNL1        0.1372
     52 O          63.9436   92.0996    3.0703 O.3     1  UNL1       -0.3820
     53 H          64.0949   92.7209    3.7998 H       1  UNL1        0.2104
     54 C          63.4247   90.4040   15.4287 C.3     1  UNL1        0.1177
     55 C          64.6559   91.2238   15.1793 C.ar    1  UNL1       -0.0025
     56 C          65.2553   92.0339   16.2903 C.ar    1  UNL1       -0.0026
     57 C          66.4865   92.8537   16.0409 C.ar    1  UNL1       -0.0003
     58 C          67.1181   92.8635   14.6805 C.ar    1  UNL1       -0.0000
     59 C          66.5187   92.0535   13.5693 C.ar    1  UNL1       -0.0003
     60 C          65.2875   91.2336   13.8187 C.ar    1  UNL1       -0.0026
@<TRIPOS>BOND
     1    18    19    2
     2    19    17    1
     3    17     1    1
     4     1     2    1
     5     2     3    1
     6     3     4    2
     7     3     5   am
     8     5     6    1
     9     6    20    1
    10    20    21    1
    11    21    22   ar
    12    22    23   ar
    13    23    24   ar
    14    24    25    1
    15    24    26   ar
    16    26    27   ar
    17     6     7    1
    18     7     8    2
    19     7     9   am
    20     9    29    1
    21    29    30    1
    22    30    31   ar
    23    31    32   ar
    24    32    33   ar
    25    33    34   ar
    26    34    35   ar
    27    35    40    1
    28    40    41    2
    29    40    42   am
    30    42    43    1
    31    43    44    1
    32    44    45    1
    33    45    48    1
    34    48    49    1
    35    49    50    1
    36    50    51    1
    37    51    52    1
    38    45    46    1
    39    46    47    1
    40    35    36   ar
    41    36    37   ar
    42    37    38    1
    43    37    39   ar
    44     9    10    1
    45    11    10    1
    46    11    12    1
    47    12    13   am
    48    13    14    2
    49    13    15   am
    50    15    54    1
    51    54    55    1
    52    55    56   ar
    53    56    57   ar
    54    57    58   ar
    55    58    59   ar
    56    59    60   ar
    57    12     1    1
    58    60    55   ar
    59    11     5    1
    60    27    21   ar
    61    39    30   ar
    62    39    34   ar
    63    47    42    1
    64    25    28    1
    65    52    53    1
    66    15    16    1
@<TRIPOS>MOLECULE
*****
 60 66 0 0 0
SMALL
GASTEIGER

@<TRIPOS>ATOM
      1 N          65.3629   89.3936   14.6499 N.3     1  UNL1       -0.1862
      2 C          65.5575   88.1496   15.4651 C.3     1  UNL1        0.1775
      3 C          64.8319   86.8898   15.0957 C.2     1  UNL1        0.2452
      4 O          65.0265   85.6457   15.9109 O.2     1  UNL1       -0.2732
      5 N          63.9118   86.8740   13.9112 N.am    1  UNL1       -0.2541
      6 C          63.1862   85.6142   13.5418 C.3     1  UNL1        0.1577
      7 C          62.2661   85.5984   12.3573 C.2     1  UNL1        0.2445
      8 O          61.5406   84.3386   11.9879 O.2     1  UNL1       -0.2731
      9 N          62.0716   86.8425   11.5421 N.am    1  UNL1       -0.2705
     10 C          62.7971   88.1023   11.9115 C.3     1  UNL1        0.1359
     11 C          63.7173   88.1180   13.0960 C.3     1  UNL1        0.1908
     12 N          64.4428   89.3779   13.4654 N.am    1  UNL1       -0.1863
     13 C          64.2483   90.6219   12.6502 C.2     1  UNL1        0.3191
     14 O          63.3282   90.6062   11.4657 O.2     1  UNL1       -0.2512
     15 N          64.9738   91.8817   13.0196 N.am    1  UNL1       -0.2836
     16 H          65.5777   91.8921   13.7970 H       1  UNL1        0.1513
     17 C          66.0885   90.6534   15.0193 C.3     1  UNL1        0.1188
     18 C          68.0677   92.2709   14.5541 C.2     1  UNL1       -0.0034
     19 C          67.4827   90.8901   14.5191 C.2     1  UNL1       -0.0071
     20 C          63.3808   84.3702   14.3569 C.3     1  UNL1        0.0556
     21 C          63.1732   83.0231   13.7307 C.ar    1  UNL1       -0.0198
     22 C          64.0138   82.6017   12.5620 C.ar    1  UNL1       -0.0011
     23 C          63.8062   81.2546   11.9357 C.ar    1  UNL1        0.0363
     24 C          62.7580   80.3288   12.4782 C.ar    1  UNL1        0.1337
     25 O          62.5504   78.9817   11.8519 O.3     1  UNL1       -0.5055
     26 C          61.9174   80.7502   13.6469 C.ar    1  UNL1        0.0363
     27 C          62.1250   82.0973   14.2732 C.ar    1  UNL1       -0.0011
     28 H          63.0755   78.7185   11.1219 H       1  UNL1        0.2922
     29 C          61.1515   86.8267   10.3576 C.3     1  UNL1        0.1217
     30 C          60.5575   88.1081    9.8521 C.ar    1  UNL1        0.0135
     31 C          60.3755   89.2693   10.7840 C.ar    1  UNL1       -0.0012
     32 C          59.7815   90.5506   10.2786 C.ar    1  UNL1       -0.0002
     33 C          59.3696   90.6707    8.8413 C.ar    1  UNL1        0.0016
     34 C          59.5516   89.5095    7.9094 C.ar    1  UNL1        0.0214
     35 C          59.2418   89.3337    6.4523 C.ar    1  UNL1        0.0721
     36 C          59.6443   87.9438    6.0572 C.ar    1  UNL1        0.0805
     37 N          60.2028   87.2606    7.2701 N.ar    1  UNL1       -0.3241
     38 C          60.7267   85.8563    7.3280 C.3     1  UNL1        0.1305
     39 C          60.1456   88.2282    8.4148 C.ar    1  UNL1        0.0577
     40 C          58.6359   90.3667    5.5489 C.2     1  UNL1        0.2506
     41 O          57.1542   90.5999    5.5641 O.2     1  UNL1       -0.2699
     42 N          59.5116   91.1663    4.6304 N.am    1  UNL1       -0.2732
     43 C          58.9058   92.1991    3.7270 C.3     1  UNL1        0.1110
     44 C          59.7816   92.9987    2.8085 C.3     1  UNL1        0.0939
     45 N          61.2633   92.7654    2.7934 N.3     1  UNL1       -0.2698
     46 C          61.8691   91.7325    3.6968 C.3     1  UNL1        0.0939
     47 C          60.9933   90.9329    4.6153 C.3     1  UNL1        0.1110
     48 C          62.1390   93.5650    1.8748 C.3     1  UNL1        0.0723
     49 C          62.1842   93.2409    0.4110 C.3     1  UNL1        0.0199
     50 C          63.4276   93.5189   -0.3807 C.3     1  UNL1        0.0332
     51 C          64.7103   93.8424    0.3264 C.3     1  UNL1        0.1372
     52 O          65.7285   92.7666    0.5626 O.3     1  UNL1       -0.3820
     53 H          65.3667   92.1081    1.1761 H       1  UNL1        0.2104
     54 C          64.7793   93.1258   12.2045 C.3     1  UNL1        0.1177
     55 C          65.8239   93.5433   11.2123 C.ar    1  UNL1       -0.0025
     56 C          66.7259   92.5157   10.5956 C.ar    1  UNL1       -0.0026
     57 C          67.7705   92.9333    9.6034 C.ar    1  UNL1       -0.0003
     58 C          67.9131   94.3784    9.2279 C.ar    1  UNL1       -0.0000
     59 C          67.0111   95.4062    9.8446 C.ar    1  UNL1       -0.0003
     60 C          65.9665   94.9886   10.8368 C.ar    1  UNL1       -0.0026
@<TRIPOS>BOND
     1    18    19    2
     2    19    17    1
     3    17     1    1
     4     1     2    1
     5     2     3    1
     6     3     4    2
     7     3     5   am
     8     5     6    1
     9     6    20    1
    10    20    21    1
    11    21    22   ar
    12    22    23   ar
    13    23    24   ar
    14    24    25    1
    15    24    26   ar
    16    26    27   ar
    17     6     7    1
    18     7     8    2
    19     7     9   am
    20     9    29    1
    21    29    30    1
    22    30    31   ar
    23    31    32   ar
    24    32    33   ar
    25    33    34   ar
    26    34    35   ar
    27    35    40    1
    28    40    41    2
    29    40    42   am
    30    42    43    1
    31    43    44    1
    32    44    45    1
    33    45    48    1
    34    48    49    1
    35    49    50    1
    36    50    51    1
    37    51    52    1
    38    45    46    1
    39    46    47    1
    40    35    36   ar
    41    36    37   ar
    42    37    38    1
    43    37    39   ar
    44     9    10    1
    45    11    10    1
    46    11    12    1
    47    12    13   am
    48    13    14    2
    49    13    15   am
    50    15    54    1
    51    54    55    1
    52    55    56   ar
    53    56    57   ar
    54    57    58   ar
    55    58    59   ar
    56    59    60   ar
    57    12     1    1
    58    60    55   ar
    59    11     5    1
    60    27    21   ar
    61    39    30   ar
    62    39    34   ar
    63    47    42    1
    64    25    28    1
    65    52    53    1
    66    15    16    1
