@<TRIPOS>MOLECULE
*****
 57 62 0 0 0
SMALL
GASTEIGER

@<TRIPOS>ATOM
      1 N          64.0473   86.2473   15.8324 N.3     1  UNL1       -0.1862
      2 C          64.1984   84.7831   16.1211 C.3     1  UNL1        0.1775
      3 C          63.9819   83.7772   15.0296 C.2     1  UNL1        0.2452
      4 O          64.1330   82.3130   15.3184 O.2     1  UNL1       -0.2732
      5 N          63.6142   84.2355   13.6495 N.am    1  UNL1       -0.2541
      6 C          63.3977   83.2296   12.5580 C.3     1  UNL1        0.1577
      7 C          63.0301   83.6878   11.1779 C.2     1  UNL1        0.2445
      8 O          62.8135   82.6819   10.0865 O.2     1  UNL1       -0.2731
      9 N          62.8790   85.1520   10.8891 N.am    1  UNL1       -0.2705
     10 C          63.0955   86.1579   11.9806 C.3     1  UNL1        0.1359
     11 C          63.4632   85.6996   13.3608 C.3     1  UNL1        0.1908
     12 N          63.6797   86.7055   14.4522 N.am    1  UNL1       -0.1863
     13 C          63.5286   88.1698   14.1635 C.2     1  UNL1        0.3191
     14 O          63.1610   88.6280   12.7834 O.2     1  UNL1       -0.2512
     15 N          63.7452   89.1757   15.2549 N.am    1  UNL1       -0.2836
     16 H          63.9865   88.8749   16.1608 H       1  UNL1        0.1513
     17 C          64.2639   87.2532   16.9238 C.3     1  UNL1        0.1188
     18 C          62.4420   86.7241   18.6989 C.2     1  UNL1       -0.0034
     19 C          63.1107   87.6974   17.7739 C.2     1  UNL1       -0.0071
     20 C          63.5488   81.7654   12.8467 C.3     1  UNL1        0.0556
     21 C          62.3604   80.9603   13.2822 C.ar    1  UNL1       -0.0198
     22 C          61.1282   81.6530   13.7839 C.ar    1  UNL1       -0.0011
     23 C          59.9399   80.8479   14.2193 C.ar    1  UNL1        0.0363
     24 C          59.9837   79.3500   14.1530 C.ar    1  UNL1        0.1337
     25 O          58.7954   78.5449   14.5885 O.3     1  UNL1       -0.5055
     26 C          61.2160   78.6572   13.6513 C.ar    1  UNL1        0.0363
     27 C          62.4043   79.4623   13.2159 C.ar    1  UNL1       -0.0011
     28 H          58.0256   78.9777   14.9019 H       1  UNL1        0.2922
     29 C          62.5113   85.6103    9.5090 C.3     1  UNL1        0.1217
     30 C          61.9876   86.9995    9.2946 C.ar    1  UNL1        0.0135
     31 C          62.4538   88.1209   10.1750 C.ar    1  UNL1       -0.0012
     32 C          61.9301   89.5101    9.9606 C.ar    1  UNL1       -0.0002
     33 C          60.9403   89.7778    8.8659 C.ar    1  UNL1        0.0016
     34 C          60.4741   88.6563    7.9856 C.ar    1  UNL1        0.0214
     35 C          59.5127   88.6168    6.8348 C.ar    1  UNL1        0.0719
     36 C          59.4422   87.2033    6.3380 C.ar    1  UNL1        0.0805
     37 N          60.3600   86.3692    7.1816 N.ar    1  UNL1       -0.3241
     38 C          60.5983   84.8957    7.0332 C.3     1  UNL1        0.1305
     39 C          60.9977   87.2672    8.1999 C.ar    1  UNL1        0.0577
     40 C          58.7548   89.7858    6.2785 C.2     1  UNL1        0.2474
     41 O          57.2698   89.8764    6.4697 O.2     1  UNL1       -0.2701
     42 N          59.4820   90.8640    5.5312 N.am    1  UNL1       -0.2984
     43 H          60.4566   90.8045    5.4057 H       1  UNL1        0.1498
     44 C          58.7242   92.0329    4.9749 C.3     1  UNL1        0.1219
     45 C          58.9738   92.4873    3.5674 C.3     1  UNL1        0.1634
     46 O          60.0144   93.5313    3.2897 O.3     1  UNL1       -0.3493
     47 C          61.1960   93.2014    2.4264 C.3     1  UNL1        0.1739
     48 C          62.1650   92.1398    2.8551 C.3     1  UNL1        0.1692
     49 O          63.6111   92.4822    3.0587 O.3     1  UNL1       -0.3794
     50 H          64.0075   92.7301    2.2088 H       1  UNL1        0.2105
     51 C          63.5941   90.6398   14.9662 C.3     1  UNL1        0.1177
     52 C          64.6437   91.3600   14.1728 C.ar    1  UNL1       -0.0025
     53 C          64.3979   91.6917   12.7308 C.ar    1  UNL1       -0.0026
     54 C          65.4476   92.4120   11.9374 C.ar    1  UNL1       -0.0003
     55 C          66.7430   92.8005   12.5860 C.ar    1  UNL1       -0.0000
     56 C          66.9889   92.4688   14.0281 C.ar    1  UNL1       -0.0003
     57 C          65.9393   91.7486   14.8215 C.ar    1  UNL1       -0.0026
@<TRIPOS>BOND
     1    18    19    2
     2    19    17    1
     3    17     1    1
     4     1     2    1
     5     2     3    1
     6     3     4    2
     7     3     5   am
     8     5     6    1
     9     6    20    1
    10    20    21    1
    11    21    22   ar
    12    22    23   ar
    13    23    24   ar
    14    24    25    1
    15    24    26   ar
    16    26    27   ar
    17     6     7    1
    18     7     8    2
    19     7     9   am
    20     9    29    1
    21    29    30    1
    22    30    31   ar
    23    31    32   ar
    24    32    33   ar
    25    33    34   ar
    26    34    35   ar
    27    35    40    1
    28    40    41    2
    29    40    42   am
    30    42    44    1
    31    44    45    1
    32    45    46    1
    33    46    47    1
    34    47    48    1
    35    48    49    1
    36    35    36   ar
    37    36    37   ar
    38    37    38    1
    39    37    39   ar
    40     9    10    1
    41    11    10    1
    42    11    12    1
    43    12    13   am
    44    13    14    2
    45    13    15   am
    46    15    51    1
    47    51    52    1
    48    52    53   ar
    49    53    54   ar
    50    54    55   ar
    51    55    56   ar
    52    56    57   ar
    53    12     1    1
    54    57    52   ar
    55    11     5    1
    56    27    21   ar
    57    39    30   ar
    58    39    34   ar
    59    25    28    1
    60    42    43    1
    61    49    50    1
    62    15    16    1
@<TRIPOS>MOLECULE
*****
 57 62 0 0 0
SMALL
GASTEIGER

@<TRIPOS>ATOM
      1 N          65.3799   89.3878   14.6590 N.3     1  UNL1       -0.1862
      2 C          65.5780   88.1484   15.4803 C.3     1  UNL1        0.1775
      3 C          64.8518   86.8862   15.1203 C.2     1  UNL1        0.2452
      4 O          65.0500   85.6467   15.9416 O.2     1  UNL1       -0.2732
      5 N          63.9276   86.8635   13.9391 N.am    1  UNL1       -0.2541
      6 C          63.2015   85.6013   13.5791 C.3     1  UNL1        0.1577
      7 C          62.2773   85.5786   12.3979 C.2     1  UNL1        0.2445
      8 O          61.5511   84.3164   12.0379 O.2     1  UNL1       -0.2731
      9 N          62.0791   86.8181   11.5766 N.am    1  UNL1       -0.2705
     10 C          62.8053   88.0803   11.9366 C.3     1  UNL1        0.1359
     11 C          63.7296   88.1029   13.1179 C.3     1  UNL1        0.1908
     12 N          64.4557   89.3651   13.4779 N.am    1  UNL1       -0.1863
     13 C          64.2576   90.6047   12.6566 C.2     1  UNL1        0.3191
     14 O          63.3334   90.5819   11.4754 O.2     1  UNL1       -0.2512
     15 N          64.9838   91.8668   13.0166 N.am    1  UNL1       -0.2836
     16 H          65.5904   91.8817   13.7918 H       1  UNL1        0.1513
     17 C          66.1061   90.6500   15.0190 C.3     1  UNL1        0.1188
     18 C          68.1090   92.2516   14.6027 C.2     1  UNL1       -0.0034
     19 C          67.4988   90.8842   14.5137 C.2     1  UNL1       -0.0071
     20 C          63.3995   84.3618   14.4003 C.3     1  UNL1        0.0556
     21 C          63.1807   83.0115   13.7849 C.ar    1  UNL1       -0.0198
     22 C          64.0220   82.5713   12.6237 C.ar    1  UNL1       -0.0011
     23 C          63.8032   81.2209   12.0083 C.ar    1  UNL1        0.0363
     24 C          62.7432   80.3108   12.5541 C.ar    1  UNL1        0.1337
     25 O          62.5244   78.9605   11.9387 O.3     1  UNL1       -0.5055
     26 C          61.9018   80.7510   13.7154 C.ar    1  UNL1        0.0363
     27 C          62.1206   82.1014   14.3308 C.ar    1  UNL1       -0.0011
     28 H          63.0499   78.6855   11.2133 H       1  UNL1        0.2922
     29 C          61.1549   86.7954   10.3954 C.3     1  UNL1        0.1217
     30 C          60.5539   88.0729    9.8887 C.ar    1  UNL1        0.0135
     31 C          60.3491   89.2280   10.8236 C.ar    1  UNL1       -0.0012
     32 C          59.7481   90.5055   10.3169 C.ar    1  UNL1       -0.0002
     33 C          59.3518   90.6279    8.8755 C.ar    1  UNL1        0.0016
     34 C          59.5565   89.4729    7.9406 C.ar    1  UNL1        0.0214
     35 C          59.2657   89.3006    6.4792 C.ar    1  UNL1        0.0719
     36 C          59.6869   87.9167    6.0827 C.ar    1  UNL1        0.0805
     37 N          60.2381   87.2336    7.2990 N.ar    1  UNL1       -0.3241
     38 C          60.7756   85.8344    7.3569 C.3     1  UNL1        0.1305
     39 C          60.1576   88.1954    8.4473 C.ar    1  UNL1        0.0577
     40 C          58.6598   90.3315    5.5733 C.2     1  UNL1        0.2474
     41 O          57.1702   90.4079    5.4146 O.2     1  UNL1       -0.2701
     42 N          59.5436   91.2858    4.8263 N.am    1  UNL1       -0.2984
     43 H          60.5213   91.2356    4.9305 H       1  UNL1        0.1498
     44 C          58.9379   92.3165    3.9204 C.3     1  UNL1        0.1219
     45 C          59.6909   92.7887    2.7121 C.3     1  UNL1        0.1634
     46 O          61.1623   93.0649    2.8060 O.3     1  UNL1       -0.3493
     47 C          62.1146   92.3829    1.8690 C.3     1  UNL1        0.1739
     48 C          63.5422   92.1676    2.2761 C.3     1  UNL1        0.1692
     49 O          63.8690   91.2210    3.3928 O.3     1  UNL1       -0.3794
     50 H          63.5135   91.5686    4.2257 H       1  UNL1        0.2105
     51 C          64.7857   93.1063   12.1954 C.3     1  UNL1        0.1177
     52 C          65.8320   93.5254   11.2056 C.ar    1  UNL1       -0.0025
     53 C          66.7706   92.5068   10.6298 C.ar    1  UNL1       -0.0026
     54 C          67.8169   92.9259    9.6401 C.ar    1  UNL1       -0.0003
     55 C          67.9247   94.3636    9.2261 C.ar    1  UNL1       -0.0000
     56 C          66.9861   95.3823    9.8019 C.ar    1  UNL1       -0.0003
     57 C          65.9398   94.9632   10.7917 C.ar    1  UNL1       -0.0026
@<TRIPOS>BOND
     1    18    19    2
     2    19    17    1
     3    17     1    1
     4     1     2    1
     5     2     3    1
     6     3     4    2
     7     3     5   am
     8     5     6    1
     9     6    20    1
    10    20    21    1
    11    21    22   ar
    12    22    23   ar
    13    23    24   ar
    14    24    25    1
    15    24    26   ar
    16    26    27   ar
    17     6     7    1
    18     7     8    2
    19     7     9   am
    20     9    29    1
    21    29    30    1
    22    30    31   ar
    23    31    32   ar
    24    32    33   ar
    25    33    34   ar
    26    34    35   ar
    27    35    40    1
    28    40    41    2
    29    40    42   am
    30    42    44    1
    31    44    45    1
    32    45    46    1
    33    46    47    1
    34    47    48    1
    35    48    49    1
    36    35    36   ar
    37    36    37   ar
    38    37    38    1
    39    37    39   ar
    40     9    10    1
    41    11    10    1
    42    11    12    1
    43    12    13   am
    44    13    14    2
    45    13    15   am
    46    15    51    1
    47    51    52    1
    48    52    53   ar
    49    53    54   ar
    50    54    55   ar
    51    55    56   ar
    52    56    57   ar
    53    12     1    1
    54    57    52   ar
    55    11     5    1
    56    27    21   ar
    57    39    30   ar
    58    39    34   ar
    59    25    28    1
    60    42    43    1
    61    49    50    1
    62    15    16    1
@<TRIPOS>MOLECULE
*****
 57 62 0 0 0
SMALL
GASTEIGER

@<TRIPOS>ATOM
      1 N          63.3134   91.0612   11.8666 N.3     1  UNL1       -0.1862
      2 C          62.3866   90.8344   10.7093 C.3     1  UNL1        0.1775
      3 C          61.8650   89.4571   10.4248 C.2     1  UNL1        0.2452
      4 O          60.9381   89.2303    9.2675 O.2     1  UNL1       -0.2732
      5 N          62.2703   88.3065   11.2977 N.am    1  UNL1       -0.2541
      6 C          61.7488   86.9292   11.0132 C.3     1  UNL1        0.1577
      7 C          62.1541   85.7787   11.8861 C.2     1  UNL1        0.2445
      8 O          61.6326   84.4013   11.6016 O.2     1  UNL1       -0.2731
      9 N          63.0811   86.0054   13.0435 N.am    1  UNL1       -0.2705
     10 C          63.6026   87.3828   13.3279 C.3     1  UNL1        0.1359
     11 C          63.1972   88.5333   12.4550 C.3     1  UNL1        0.1908
     12 N          63.7188   89.9107   12.7395 N.am    1  UNL1       -0.1863
     13 C          64.6457   90.1375   13.8969 C.2     1  UNL1        0.3191
     14 O          65.0510   88.9869   14.7697 O.2     1  UNL1       -0.2512
     15 N          65.1672   91.5148   14.1813 N.am    1  UNL1       -0.2836
     16 H          64.9012   92.2699   13.6084 H       1  UNL1        0.1513
     17 C          63.8350   92.4386   12.1511 C.3     1  UNL1        0.1188
     18 C          65.9972   93.8665   11.9625 C.2     1  UNL1       -0.0034
     19 C          64.9499   93.0043   11.3224 C.2     1  UNL1       -0.0071
     20 C          60.8219   86.7024    9.8559 C.3     1  UNL1        0.0556
     21 C          61.3072   85.9734    8.6381 C.ar    1  UNL1       -0.0198
     22 C          60.3467   85.6261    7.5395 C.ar    1  UNL1       -0.0011
     23 C          60.8320   84.8972    6.3217 C.ar    1  UNL1        0.0363
     24 C          62.2776   84.5155    6.2024 C.ar    1  UNL1        0.1337
     25 O          62.7629   83.7865    4.9846 O.3     1  UNL1       -0.5055
     26 C          63.2382   84.8628    7.3010 C.ar    1  UNL1        0.0363
     27 C          62.7529   85.5917    8.5188 C.ar    1  UNL1       -0.0011
     28 H          62.1629   83.5695    4.2983 H       1  UNL1        0.2922
     29 C          63.4864   84.8549   13.9163 C.3     1  UNL1        0.1217
     30 C          62.8562   83.5076   13.7219 C.ar    1  UNL1        0.0135
     31 C          61.8705   82.9887   14.7265 C.ar    1  UNL1       -0.0012
     32 C          61.2403   81.6415   14.5321 C.ar    1  UNL1       -0.0002
     33 C          61.5959   80.8131   13.3333 C.ar    1  UNL1        0.0016
     34 C          62.5816   81.3320   12.3287 C.ar    1  UNL1        0.0214
     35 C          63.1234   80.7457   11.0588 C.ar    1  UNL1        0.0719
     36 C          64.0884   81.7306   10.4683 C.ar    1  UNL1        0.0805
     37 N          64.1430   82.9256   11.3732 N.ar    1  UNL1       -0.3241
     38 C          64.9816   84.1516   11.1650 C.3     1  UNL1        0.1305
     39 C          63.2118   82.6792   12.5231 C.ar    1  UNL1        0.0577
     40 C          62.7633   79.4091   10.4808 C.2     1  UNL1        0.2474
     41 O          62.3924   79.2938    9.0319 O.2     1  UNL1       -0.2701
     42 N          62.7741   78.1879   11.3517 N.am    1  UNL1       -0.2984
     43 H          63.0175   78.2636   12.3026 H       1  UNL1        0.1498
     44 C          62.4141   76.8513   10.7738 C.3     1  UNL1        0.1219
     45 C          63.4069   76.1062    9.9317 C.3     1  UNL1        0.1634
     46 O          64.6040   76.8193    9.3762 O.3     1  UNL1       -0.3493
     47 C          65.3234   76.2607    8.1845 C.3     1  UNL1        0.1739
     48 C          64.9064   74.9404    7.6075 C.3     1  UNL1        0.1692
     49 O          64.5053   74.8452    6.1653 O.3     1  UNL1       -0.3794
     50 H          63.6892   75.3497    6.0227 H       1  UNL1        0.2105
     51 C          66.0941   91.7416   15.3386 C.3     1  UNL1        0.1177
     52 C          67.5025   92.1959   15.0937 C.ar    1  UNL1       -0.0025
     53 C          68.2803   91.6382   13.9387 C.ar    1  UNL1       -0.0026
     54 C          69.6887   92.0925   13.6938 C.ar    1  UNL1       -0.0003
     55 C          70.3194   93.1044   14.6038 C.ar    1  UNL1       -0.0000
     56 C          69.5416   93.6621   15.7589 C.ar    1  UNL1       -0.0003
     57 C          68.1332   93.2079   16.0038 C.ar    1  UNL1       -0.0026
@<TRIPOS>BOND
     1    18    19    2
     2    19    17    1
     3    17     1    1
     4     1     2    1
     5     2     3    1
     6     3     4    2
     7     3     5   am
     8     5     6    1
     9     6    20    1
    10    20    21    1
    11    21    22   ar
    12    22    23   ar
    13    23    24   ar
    14    24    25    1
    15    24    26   ar
    16    26    27   ar
    17     6     7    1
    18     7     8    2
    19     7     9   am
    20     9    29    1
    21    29    30    1
    22    30    31   ar
    23    31    32   ar
    24    32    33   ar
    25    33    34   ar
    26    34    35   ar
    27    35    40    1
    28    40    41    2
    29    40    42   am
    30    42    44    1
    31    44    45    1
    32    45    46    1
    33    46    47    1
    34    47    48    1
    35    48    49    1
    36    35    36   ar
    37    36    37   ar
    38    37    38    1
    39    37    39   ar
    40     9    10    1
    41    11    10    1
    42    11    12    1
    43    12    13   am
    44    13    14    2
    45    13    15   am
    46    15    51    1
    47    51    52    1
    48    52    53   ar
    49    53    54   ar
    50    54    55   ar
    51    55    56   ar
    52    56    57   ar
    53    12     1    1
    54    57    52   ar
    55    11     5    1
    56    27    21   ar
    57    39    30   ar
    58    39    34   ar
    59    25    28    1
    60    42    43    1
    61    49    50    1
    62    15    16    1
@<TRIPOS>MOLECULE
*****
 57 62 0 0 0
SMALL
GASTEIGER

@<TRIPOS>ATOM
      1 N          63.9624   91.6733   11.9068 N.3     1  UNL1       -0.1862
      2 C          63.0643   91.6577   10.7056 C.3     1  UNL1        0.1775
      3 C          62.3847   90.3855   10.2937 C.2     1  UNL1        0.2452
      4 O          61.4865   90.3698    9.0924 O.2     1  UNL1       -0.2732
      5 N          62.6033   89.1289   11.0831 N.am    1  UNL1       -0.2541
      6 C          61.9237   87.8567   10.6713 C.3     1  UNL1        0.1577
      7 C          62.1423   86.6001   11.4607 C.2     1  UNL1        0.2445
      8 O          61.4627   85.3279   11.0489 O.2     1  UNL1       -0.2731
      9 N          63.0405   86.6157   12.6620 N.am    1  UNL1       -0.2705
     10 C          63.7200   87.8879   13.0739 C.3     1  UNL1        0.1359
     11 C          63.5014   89.1445   12.2844 C.3     1  UNL1        0.1908
     12 N          64.1810   90.4168   12.6962 N.am    1  UNL1       -0.1863
     13 C          65.0792   90.4324   13.8976 C.2     1  UNL1        0.3191
     14 O          65.2978   89.1758   14.6870 O.2     1  UNL1       -0.2512
     15 N          65.7588   91.7046   14.3094 N.am    1  UNL1       -0.2836
     16 H          65.6153   92.5293   13.7913 H       1  UNL1        0.1513
     17 C          64.6420   92.9456   12.3187 C.3     1  UNL1        0.1188
     18 C          66.6360   92.7455   10.6653 C.2     1  UNL1       -0.0034
     19 C          65.6427   93.5906   11.4063 C.2     1  UNL1       -0.0071
     20 C          61.0256   87.8410    9.4700 C.3     1  UNL1        0.0556
     21 C          61.1631   86.7547    8.4449 C.ar    1  UNL1       -0.0198
     22 C          59.9733   86.3333    7.6344 C.ar    1  UNL1       -0.0011
     23 C          60.1108   85.2470    6.6092 C.ar    1  UNL1        0.0363
     24 C          61.4381   84.5820    6.3946 C.ar    1  UNL1        0.1337
     25 O          61.5756   83.4956    5.3694 O.3     1  UNL1       -0.5055
     26 C          62.6279   85.0033    7.2050 C.ar    1  UNL1        0.0363
     27 C          62.4904   86.0896    8.2302 C.ar    1  UNL1       -0.0011
     28 H          60.8323   83.2324    4.8631 H       1  UNL1        0.2922
     29 C          63.2590   85.3591   13.4514 C.3     1  UNL1        0.1217
     30 C          63.5340   84.0662   12.7423 C.ar    1  UNL1        0.0135
     31 C          64.3823   84.0549   11.5053 C.ar    1  UNL1       -0.0012
     32 C          64.6573   82.7620   10.7962 C.ar    1  UNL1       -0.0002
     33 C          64.0839   81.4804   11.3242 C.ar    1  UNL1        0.0016
     34 C          63.2356   81.4917   12.5612 C.ar    1  UNL1        0.0214
     35 C          62.5399   80.3947   13.3112 C.ar    1  UNL1        0.0719
     36 C          61.8350   81.0096   14.4838 C.ar    1  UNL1        0.0805
     37 N          62.0950   82.4865   14.4585 N.ar    1  UNL1       -0.3241
     38 C          61.5799   83.4895   15.4477 C.3     1  UNL1        0.1305
     39 C          62.9606   82.7846   13.2703 C.ar    1  UNL1        0.0577
     40 C          62.5478   78.9383   12.9516 C.2     1  UNL1        0.2474
     41 O          62.3947   77.9003   14.0236 O.2     1  UNL1       -0.2701
     42 N          62.7088   78.5201   11.5202 N.am    1  UNL1       -0.2984
     43 H          62.8092   79.2014   10.8166 H       1  UNL1        0.1498
     44 C          62.7166   77.0639   11.1606 C.3     1  UNL1        0.1219
     45 C          63.2788   76.6197    9.8427 C.3     1  UNL1        0.1634
     46 O          64.7481   76.7512    9.5716 O.3     1  UNL1       -0.3493
     47 C          65.3965   75.8974    8.5224 C.3     1  UNL1        0.1739
     48 C          64.5927   74.8577    7.7994 C.3     1  UNL1        0.1692
     49 O          64.5684   74.8373    6.2998 O.3     1  UNL1       -0.3794
     50 H          64.1296   75.6381    5.9726 H       1  UNL1        0.2105
     51 C          66.6569   91.7203   15.5106 C.3     1  UNL1        0.1177
     52 C          67.9132   92.5398   15.4972 C.ar    1  UNL1       -0.0025
     53 C          67.9686   93.8398   16.2435 C.ar    1  UNL1       -0.0026
     54 C          69.2249   94.6593   16.2300 C.ar    1  UNL1       -0.0003
     55 C          70.4257   94.1788   15.4703 C.ar    1  UNL1       -0.0000
     56 C          70.3703   92.8788   14.7240 C.ar    1  UNL1       -0.0003
     57 C          69.1140   92.0593   14.7375 C.ar    1  UNL1       -0.0026
@<TRIPOS>BOND
     1    18    19    2
     2    19    17    1
     3    17     1    1
     4     1     2    1
     5     2     3    1
     6     3     4    2
     7     3     5   am
     8     5     6    1
     9     6    20    1
    10    20    21    1
    11    21    22   ar
    12    22    23   ar
    13    23    24   ar
    14    24    25    1
    15    24    26   ar
    16    26    27   ar
    17     6     7    1
    18     7     8    2
    19     7     9   am
    20     9    29    1
    21    29    30    1
    22    30    31   ar
    23    31    32   ar
    24    32    33   ar
    25    33    34   ar
    26    34    35   ar
    27    35    40    1
    28    40    41    2
    29    40    42   am
    30    42    44    1
    31    44    45    1
    32    45    46    1
    33    46    47    1
    34    47    48    1
    35    48    49    1
    36    35    36   ar
    37    36    37   ar
    38    37    38    1
    39    37    39   ar
    40     9    10    1
    41    11    10    1
    42    11    12    1
    43    12    13   am
    44    13    14    2
    45    13    15   am
    46    15    51    1
    47    51    52    1
    48    52    53   ar
    49    53    54   ar
    50    54    55   ar
    51    55    56   ar
    52    56    57   ar
    53    12     1    1
    54    57    52   ar
    55    11     5    1
    56    27    21   ar
    57    39    30   ar
    58    39    34   ar
    59    25    28    1
    60    42    43    1
    61    49    50    1
    62    15    16    1
