@<TRIPOS>MOLECULE
*****
 35 38 0 0 0
SMALL
GASTEIGER

@<TRIPOS>ATOM
      1 N          62.8738   90.4704   12.4761 N.am    1  UNL1       -0.2623
      2 C          64.0150   91.1663   11.7953 C.3     1  UNL1        0.1226
      3 C          65.0548   91.4741   12.8317 C.ar    1  UNL1        0.0196
      4 C          64.5563   90.9685   14.1530 C.ar    1  UNL1        0.1319
      5 N          65.3941   91.1384   15.3855 N.ar    1  UNL1       -0.2456
      6 C          66.7305   91.8138   15.2967 C.ar    1  UNL1        0.0568
      7 C          67.5684   91.9836   16.5293 C.3     1  UNL1        0.0518
      8 C          67.2290   92.3193   13.9755 C.ar    1  UNL1        0.0068
      9 C          66.3911   92.1495   12.7429 C.ar    1  UNL1       -0.0015
     10 C          63.2083   90.3482   13.9333 C.2     1  UNL1        0.2671
     11 O          62.3463   89.7165   14.9858 O.2     1  UNL1       -0.2682
     12 C          66.8897   92.6552   11.4216 C.ar    1  UNL1        0.0102
     13 C          67.6941   91.7565   10.5298 C.ar    1  UNL1        0.0017
     14 C          68.1926   92.2622    9.2085 C.ar    1  UNL1        0.0114
     15 C          67.8868   93.6665    8.7791 C.ar    1  UNL1        0.0585
     16 CL         68.3853   94.1722    7.4578 Cl      1  UNL1       -0.0822
     17 C          67.0824   94.5651    9.6709 C.ar    1  UNL1        0.0228
     18 C          66.5839   94.0594   10.9922 C.ar    1  UNL1        0.0585
     19 CL         65.7795   94.9580   11.8840 Cl      1  UNL1       -0.0822
     20 C          68.5655   92.9948   13.8867 C.3     1  UNL1        0.0934
     21 N          69.8142   92.1732   13.7615 N.3     1  UNL1       -0.3174
     22 H          69.9525   91.6326   14.6153 H       1  UNL1        0.1192
     23 H          70.6137   92.7897   13.6161 H       1  UNL1        0.1192
     24 C          61.6185   89.9824   11.8158 C.3     1  UNL1        0.1798
     25 C          63.7111   82.4795   10.2897 C.3     1  UNL1        0.0948
     26 C          63.6285   83.4188   11.4564 C.2     1  UNL1        0.2262
     27 O          64.0277   82.9519   12.8247 O.2     1  UNL1       -0.2749
     28 N          63.1466   84.8249   11.2546 N.am    1  UNL1       -0.2760
     29 C          62.7474   85.2918    9.8861 C.3     1  UNL1        0.1149
     30 C          62.2655   86.6979    9.6843 C.3     1  UNL1        0.1150
     31 N          62.1830   87.6370   10.8509 N.am    1  UNL1       -0.2746
     32 C          61.7011   89.0432   10.6492 C.2     1  UNL1        0.2461
     33 O          61.3019   89.5100    9.2808 O.2     1  UNL1       -0.2730
     34 C          62.5822   87.1701   12.2194 C.3     1  UNL1        0.1150
     35 C          63.0640   85.7641   12.4212 C.3     1  UNL1        0.1149
@<TRIPOS>BOND
     1    25    26    1
     2    26    27    2
     3    26    28   am
     4    28    29    1
     5    29    30    1
     6    30    31    1
     7    31    32   am
     8    32    33    2
     9    32    24    1
    10    24     1    1
    11     1     2    1
    12     2     3    1
    13     3     4   ar
    14     4     5   ar
    15     5     6   ar
    16     6     7    1
    17     6     8   ar
    18     8    20    1
    19    20    21    1
    20     8     9   ar
    21     9    12    1
    22    12    13   ar
    23    13    14   ar
    24    14    15   ar
    25    15    16    1
    26    15    17   ar
    27    17    18   ar
    28    18    19    1
    29     4    10    1
    30    10    11    2
    31    31    34    1
    32    34    35    1
    33    35    28    1
    34    10     1   am
    35     9     3   ar
    36    18    12   ar
    37    21    22    1
    38    21    23    1
@<TRIPOS>MOLECULE
*****
 35 38 0 0 0
SMALL
GASTEIGER

@<TRIPOS>ATOM
      1 N          61.8494   89.9435   10.7838 N.am    1  UNL1       -0.2623
      2 C          62.2612   89.4746   12.1479 C.3     1  UNL1        0.1226
      3 C          63.4694   90.2605   12.5630 C.ar    1  UNL1        0.0196
      4 C          63.8044   91.2152   11.4556 C.ar    1  UNL1        0.1319
      5 N          64.9779   92.1396   11.5915 N.ar    1  UNL1       -0.2456
      6 C          65.8163   92.1093   12.8349 C.ar    1  UNL1        0.0568
      7 C          66.9898   93.0337   12.9708 C.3     1  UNL1        0.0518
      8 C          65.4814   91.1547   13.9423 C.ar    1  UNL1        0.0068
      9 C          64.3079   90.2302   13.8064 C.ar    1  UNL1       -0.0015
     10 C          62.8031   91.0193   10.3560 C.2     1  UNL1        0.2671
     11 O          62.7627   91.7677    9.0566 O.2     1  UNL1       -0.2682
     12 C          63.9730   89.2755   14.9139 C.ar    1  UNL1        0.0102
     13 C          64.2301   87.8078   14.7422 C.ar    1  UNL1        0.0017
     14 C          63.8952   86.8532   15.8497 C.ar    1  UNL1        0.0114
     15 C          63.3031   87.3664   17.1288 C.ar    1  UNL1        0.0585
     16 CL         62.9682   86.4119   18.2364 Cl      1  UNL1       -0.0822
     17 C          63.0460   88.8342   17.3005 C.ar    1  UNL1        0.0228
     18 C          63.3809   89.7888   16.1929 C.ar    1  UNL1        0.0585
     19 CL         63.1238   91.2566   16.3645 Cl      1  UNL1       -0.0822
     20 C          66.3199   91.1244   15.1857 C.3     1  UNL1        0.0934
     21 N          66.3898   92.3319   16.0728 N.3     1  UNL1       -0.3174
     22 H          66.8506   93.0935   15.5747 H       1  UNL1        0.1192
     23 H          66.9205   92.1056   16.9140 H       1  UNL1        0.1192
     24 C          60.6878   89.4273    9.9875 C.3     1  UNL1        0.1798
     25 C          63.8545   82.1567   10.3197 C.3     1  UNL1        0.0948
     26 C          63.6859   83.3613   11.1976 C.2     1  UNL1        0.2262
     27 O          64.2247   83.3504   12.5973 O.2     1  UNL1       -0.2749
     28 N          62.9785   84.5766   10.6755 N.am    1  UNL1       -0.2760
     29 C          62.4398   84.5875    9.2757 C.3     1  UNL1        0.1149
     30 C          61.7324   85.8028    8.7537 C.3     1  UNL1        0.1150
     31 N          61.5638   87.0073    9.6316 N.am    1  UNL1       -0.2746
     32 C          60.8564   88.2227    9.1096 C.2     1  UNL1        0.2461
     33 O          60.3176   88.2336    7.7098 O.2     1  UNL1       -0.2730
     34 C          62.1026   86.9965   11.0314 C.3     1  UNL1        0.1150
     35 C          62.8100   85.7811   11.5534 C.3     1  UNL1        0.1149
@<TRIPOS>BOND
     1    25    26    1
     2    26    27    2
     3    26    28   am
     4    28    29    1
     5    29    30    1
     6    30    31    1
     7    31    32   am
     8    32    33    2
     9    32    24    1
    10    24     1    1
    11     1     2    1
    12     2     3    1
    13     3     4   ar
    14     4     5   ar
    15     5     6   ar
    16     6     7    1
    17     6     8   ar
    18     8    20    1
    19    20    21    1
    20     8     9   ar
    21     9    12    1
    22    12    13   ar
    23    13    14   ar
    24    14    15   ar
    25    15    16    1
    26    15    17   ar
    27    17    18   ar
    28    18    19    1
    29     4    10    1
    30    10    11    2
    31    31    34    1
    32    34    35    1
    33    35    28    1
    34    10     1   am
    35     9     3   ar
    36    18    12   ar
    37    21    22    1
    38    21    23    1
@<TRIPOS>MOLECULE
*****
 35 38 0 0 0
SMALL
GASTEIGER

@<TRIPOS>ATOM
      1 N          63.9156   89.6444   13.0122 N.am    1  UNL1       -0.2623
      2 C          63.6869   88.2091   12.6414 C.3     1  UNL1        0.1226
      3 C          62.6567   88.1702   11.5518 C.ar    1  UNL1        0.0196
      4 C          62.2486   89.5816   11.2492 C.ar    1  UNL1        0.1319
      5 N          61.2213   89.8547   10.1909 N.ar    1  UNL1       -0.2456
      6 C          60.6021   88.7165    9.4353 C.ar    1  UNL1        0.0568
      7 C          59.5748   88.9898    8.3769 C.3     1  UNL1        0.0518
      8 C          61.0102   87.3053    9.7378 C.ar    1  UNL1        0.0068
      9 C          62.0375   87.0320   10.7962 C.ar    1  UNL1       -0.0015
     10 C          63.0267   90.4927   12.1518 C.2     1  UNL1        0.2671
     11 O          62.9323   91.9893   12.1876 O.2     1  UNL1       -0.2682
     12 C          62.4456   85.6206   11.0987 C.ar    1  UNL1        0.0102
     13 C          62.1510   85.0269   12.4443 C.ar    1  UNL1        0.0017
     14 C          62.5591   83.6155   12.7468 C.ar    1  UNL1        0.0114
     15 C          63.2617   82.7980   11.7037 C.ar    1  UNL1        0.0585
     16 CL         63.6697   81.3866   12.0062 Cl      1  UNL1       -0.0822
     17 C          63.5562   83.3917   10.3581 C.ar    1  UNL1        0.0228
     18 C          63.1481   84.8031   10.0556 C.ar    1  UNL1        0.0585
     19 CL         63.4426   85.3970    8.7101 Cl      1  UNL1       -0.0822
     20 C          60.3909   86.1670    8.9821 C.3     1  UNL1        0.0934
     21 N          60.6437   86.0177    7.5111 N.3     1  UNL1       -0.3174
     22 H          60.2235   86.8022    7.0126 H       1  UNL1        0.1192
     23 H          60.2305   85.1452    7.1820 H       1  UNL1        0.1192
     24 C          64.8662   90.1439   14.0595 C.3     1  UNL1        0.1798
     25 C          67.5874   96.2230    9.7421 C.3     1  UNL1        0.0948
     26 C          67.3374   94.7511    9.5967 C.2     1  UNL1        0.2262
     27 O          67.6427   94.0631    8.2992 O.2     1  UNL1       -0.2749
     28 N          66.7821   93.9672   10.7487 N.am    1  UNL1       -0.2760
     29 C          66.4768   94.6553   12.0462 C.3     1  UNL1        0.1149
     30 C          65.9214   93.8715   13.1982 C.3     1  UNL1        0.1150
     31 N          65.6715   92.3996   13.0528 N.am    1  UNL1       -0.2746
     32 C          65.1162   91.6157   14.2048 C.2     1  UNL1        0.2461
     33 O          64.8108   92.3037   15.5023 O.2     1  UNL1       -0.2730
     34 C          65.9768   91.7116   11.7553 C.3     1  UNL1        0.1150
     35 C          66.5321   92.4954   10.6033 C.3     1  UNL1        0.1149
@<TRIPOS>BOND
     1    25    26    1
     2    26    27    2
     3    26    28   am
     4    28    29    1
     5    29    30    1
     6    30    31    1
     7    31    32   am
     8    32    33    2
     9    32    24    1
    10    24     1    1
    11     1     2    1
    12     2     3    1
    13     3     4   ar
    14     4     5   ar
    15     5     6   ar
    16     6     7    1
    17     6     8   ar
    18     8    20    1
    19    20    21    1
    20     8     9   ar
    21     9    12    1
    22    12    13   ar
    23    13    14   ar
    24    14    15   ar
    25    15    16    1
    26    15    17   ar
    27    17    18   ar
    28    18    19    1
    29     4    10    1
    30    10    11    2
    31    31    34    1
    32    34    35    1
    33    35    28    1
    34    10     1   am
    35     9     3   ar
    36    18    12   ar
    37    21    22    1
    38    21    23    1
@<TRIPOS>MOLECULE
*****
 35 38 0 0 0
SMALL
GASTEIGER

@<TRIPOS>ATOM
      1 N          63.4561   84.8333   13.1899 N.am    1  UNL1       -0.2623
      2 C          62.6105   85.9674   12.6911 C.3     1  UNL1        0.1226
      3 C          62.4335   85.7975   11.2114 C.ar    1  UNL1        0.0196
      4 C          63.1696   84.5585   10.7956 C.ar    1  UNL1        0.1319
      5 N          63.1693   84.1329    9.3572 N.ar    1  UNL1       -0.2456
      6 C          62.4328   84.9465    8.3346 C.ar    1  UNL1        0.0568
      7 C          62.4326   84.5209    6.8962 C.3     1  UNL1        0.0518
      8 C          61.6967   86.1854    8.7503 C.ar    1  UNL1        0.0068
      9 C          61.6970   86.6110   10.1887 C.ar    1  UNL1       -0.0015
     10 C          63.8017   83.9625   12.0185 C.2     1  UNL1        0.2671
     11 O          64.6333   82.7149   12.0622 O.2     1  UNL1       -0.2682
     12 C          60.9608   87.8501   10.6044 C.ar    1  UNL1        0.0102
     13 C          59.5934   87.7419   11.2116 C.ar    1  UNL1        0.0017
     14 C          58.8573   88.9810   11.6272 C.ar    1  UNL1        0.0114
     15 C          59.4885   90.3282   11.4357 C.ar    1  UNL1        0.0585
     16 CL         58.7524   91.5673   11.8513 Cl      1  UNL1       -0.0822
     17 C          60.8558   90.4363   10.8285 C.ar    1  UNL1        0.0228
     18 C          61.5920   89.1972   10.4129 C.ar    1  UNL1        0.0585
     19 CL         62.9593   89.3053    9.8057 Cl      1  UNL1       -0.0822
     20 C          60.9602   86.9990    7.7276 C.3     1  UNL1        0.0934
     21 N          59.4920   86.7807    7.5113 N.3     1  UNL1       -0.3174
     22 H          59.3397   85.8474    7.1289 H       1  UNL1        0.1192
     23 H          59.1374   87.4782    6.8570 H       1  UNL1        0.1192
     24 C          63.8815   84.6093   14.6108 C.3     1  UNL1        0.1798
     25 C          63.8290   92.2438   16.7814 C.3     1  UNL1        0.0948
     26 C          64.3830   91.3797   15.6875 C.2     1  UNL1        0.2262
     27 O          65.2007   91.9923   14.5894 O.2     1  UNL1       -0.2749
     28 N          64.1191   89.9031   15.6918 N.am    1  UNL1       -0.2760
     29 C          63.3013   89.2906   16.7900 C.3     1  UNL1        0.1149
     30 C          63.0375   87.8140   16.7943 C.3     1  UNL1        0.1150
     31 N          63.5914   86.9500   15.7004 N.am    1  UNL1       -0.2746
     32 C          63.3276   85.4733   15.7047 C.2     1  UNL1        0.2461
     33 O          62.5098   84.8608   16.8028 O.2     1  UNL1       -0.2730
     34 C          64.4092   87.5625   14.6022 C.3     1  UNL1        0.1150
     35 C          64.6731   89.0391   14.5979 C.3     1  UNL1        0.1149
@<TRIPOS>BOND
     1    25    26    1
     2    26    27    2
     3    26    28   am
     4    28    29    1
     5    29    30    1
     6    30    31    1
     7    31    32   am
     8    32    33    2
     9    32    24    1
    10    24     1    1
    11     1     2    1
    12     2     3    1
    13     3     4   ar
    14     4     5   ar
    15     5     6   ar
    16     6     7    1
    17     6     8   ar
    18     8    20    1
    19    20    21    1
    20     8     9   ar
    21     9    12    1
    22    12    13   ar
    23    13    14   ar
    24    14    15   ar
    25    15    16    1
    26    15    17   ar
    27    17    18   ar
    28    18    19    1
    29     4    10    1
    30    10    11    2
    31    31    34    1
    32    34    35    1
    33    35    28    1
    34    10     1   am
    35     9     3   ar
    36    18    12   ar
    37    21    22    1
    38    21    23    1
@<TRIPOS>MOLECULE
*****
 35 38 0 0 0
SMALL
GASTEIGER

@<TRIPOS>ATOM
      1 N          61.0846   86.9696   10.2339 N.am    1  UNL1       -0.2623
      2 C          61.5944   86.6327   11.6038 C.3     1  UNL1        0.1226
      3 C          62.3715   85.3533   11.5074 C.ar    1  UNL1        0.0196
      4 C          62.3421   84.8996   10.0780 C.ar    1  UNL1        0.1319
      5 N          63.0433   83.6355    9.6778 N.ar    1  UNL1       -0.2456
      6 C          63.7740   82.8251   10.7070 C.ar    1  UNL1        0.0568
      7 C          64.4753   81.5609   10.3067 C.3     1  UNL1        0.0518
      8 C          63.8035   83.2788   12.1363 C.ar    1  UNL1        0.0068
      9 C          63.1023   84.5430   12.5366 C.ar    1  UNL1       -0.0015
     10 C          61.5466   85.8985    9.2909 C.2     1  UNL1        0.2671
     11 O          61.2631   85.8371    7.8192 O.2     1  UNL1       -0.2682
     12 C          63.1318   84.9966   13.9661 C.ar    1  UNL1        0.0102
     13 C          63.9916   86.1587   14.3665 C.ar    1  UNL1        0.0017
     14 C          64.0210   86.6123   15.7960 C.ar    1  UNL1        0.0114
     15 C          63.1907   85.9038   16.8249 C.ar    1  UNL1        0.0585
     16 CL         63.2202   86.3574   18.2544 Cl      1  UNL1       -0.0822
     17 C          62.3309   84.7418   16.4245 C.ar    1  UNL1        0.0228
     18 C          62.3015   84.2882   14.9950 C.ar    1  UNL1        0.0585
     19 CL         61.4417   83.1262   14.5945 Cl      1  UNL1       -0.0822
     20 C          64.5343   82.4683   13.1656 C.3     1  UNL1        0.0934
     21 N          63.9093   81.2236   13.7223 N.3     1  UNL1       -0.3174
     22 H          63.0779   81.4713   14.2589 H       1  UNL1        0.1192
     23 H          64.5777   80.7501   14.3302 H       1  UNL1        0.1192
     24 C          60.2578   88.1673    9.8708 C.3     1  UNL1        0.1798
     25 C          65.8804   93.2049   12.3223 C.3     1  UNL1        0.0948
     26 C          65.2115   91.9424   12.7793 C.2     1  UNL1        0.2262
     27 O          65.6138   91.3082   14.0776 O.2     1  UNL1       -0.2749
     28 N          64.1403   91.3142   11.9379 N.am    1  UNL1       -0.2760
     29 C          63.7379   91.9485   10.6395 C.3     1  UNL1        0.1149
     30 C          62.6667   91.3204    9.7981 C.3     1  UNL1        0.1150
     31 N          61.9979   90.0580   10.2552 N.am    1  UNL1       -0.2746
     32 C          60.9267   89.4298    9.4138 C.2     1  UNL1        0.2461
     33 O          60.5244   90.0640    8.1154 O.2     1  UNL1       -0.2730
     34 C          62.4002   89.4237   11.5535 C.3     1  UNL1        0.1150
     35 C          63.4714   90.0518   12.3949 C.3     1  UNL1        0.1149
@<TRIPOS>BOND
     1    25    26    1
     2    26    27    2
     3    26    28   am
     4    28    29    1
     5    29    30    1
     6    30    31    1
     7    31    32   am
     8    32    33    2
     9    32    24    1
    10    24     1    1
    11     1     2    1
    12     2     3    1
    13     3     4   ar
    14     4     5   ar
    15     5     6   ar
    16     6     7    1
    17     6     8   ar
    18     8    20    1
    19    20    21    1
    20     8     9   ar
    21     9    12    1
    22    12    13   ar
    23    13    14   ar
    24    14    15   ar
    25    15    16    1
    26    15    17   ar
    27    17    18   ar
    28    18    19    1
    29     4    10    1
    30    10    11    2
    31    31    34    1
    32    34    35    1
    33    35    28    1
    34    10     1   am
    35     9     3   ar
    36    18    12   ar
    37    21    22    1
    38    21    23    1
@<TRIPOS>MOLECULE
*****
 35 38 0 0 0
SMALL
GASTEIGER

@<TRIPOS>ATOM
      1 N          64.2890   87.4313   14.4405 N.am    1  UNL1       -0.2623
      2 C          65.0349   88.7247   14.5842 C.3     1  UNL1        0.1226
      3 C          64.6203   89.6263   13.4594 C.ar    1  UNL1        0.0196
      4 C          63.6181   88.8901   12.6205 C.ar    1  UNL1        0.1319
      5 N          63.0215   89.5502   11.4129 N.ar    1  UNL1       -0.2456
      6 C          63.4271   90.9464   11.0441 C.ar    1  UNL1        0.0568
      7 C          62.8304   91.6065    9.8365 C.3     1  UNL1        0.0518
      8 C          64.4292   91.6826   11.8829 C.ar    1  UNL1        0.0068
      9 C          65.0259   91.0226   13.0906 C.ar    1  UNL1       -0.0015
     10 C          63.4134   87.5335   13.2269 C.2     1  UNL1        0.2671
     11 O          62.4944   86.4665   12.7104 O.2     1  UNL1       -0.2682
     12 C          66.0280   91.7588   13.9295 C.ar    1  UNL1        0.0102
     13 C          67.3900   92.0609   13.3783 C.ar    1  UNL1        0.0017
     14 C          68.3921   92.7972   14.2172 C.ar    1  UNL1        0.0114
     15 C          68.0322   93.2313   15.6072 C.ar    1  UNL1        0.0585
     16 CL         69.0343   93.9676   16.4460 Cl      1  UNL1       -0.0822
     17 C          66.6702   92.9293   16.1583 C.ar    1  UNL1        0.0228
     18 C          65.6681   92.1930   15.3194 C.ar    1  UNL1        0.0585
     19 CL         64.3062   91.8909   15.8705 Cl      1  UNL1       -0.0822
     20 C          64.8348   93.0789   11.5141 C.3     1  UNL1        0.0934
     21 N          65.7277   93.3130   10.3319 N.3     1  UNL1       -0.3174
     22 H          66.6471   92.9111   10.5153 H       1  UNL1        0.1192
     23 H          65.8212   94.3157   10.1697 H       1  UNL1        0.1192
     24 C          64.3993   86.2441   15.3506 C.3     1  UNL1        0.1798
     25 C          61.7501   79.0067   13.4526 C.3     1  UNL1        0.0948
     26 C          61.2181   80.3074   13.9775 C.2     1  UNL1        0.2262
     27 O          59.7581   80.4489   14.2904 O.2     1  UNL1       -0.2749
     28 N          62.1464   81.4664   14.1896 N.am    1  UNL1       -0.2760
     29 C          63.6066   81.3249   13.8767 C.3     1  UNL1        0.1149
     30 C          64.5349   82.4839   14.0887 C.3     1  UNL1        0.1150
     31 N          64.0029   83.7844   14.6136 N.am    1  UNL1       -0.2746
     32 C          64.9312   84.9435   14.8257 C.2     1  UNL1        0.2461
     33 O          66.3913   84.8020   14.5128 O.2     1  UNL1       -0.2730
     34 C          62.5428   83.9260   14.9265 C.3     1  UNL1        0.1150
     35 C          61.6145   82.7670   14.7145 C.3     1  UNL1        0.1149
@<TRIPOS>BOND
     1    25    26    1
     2    26    27    2
     3    26    28   am
     4    28    29    1
     5    29    30    1
     6    30    31    1
     7    31    32   am
     8    32    33    2
     9    32    24    1
    10    24     1    1
    11     1     2    1
    12     2     3    1
    13     3     4   ar
    14     4     5   ar
    15     5     6   ar
    16     6     7    1
    17     6     8   ar
    18     8    20    1
    19    20    21    1
    20     8     9   ar
    21     9    12    1
    22    12    13   ar
    23    13    14   ar
    24    14    15   ar
    25    15    16    1
    26    15    17   ar
    27    17    18   ar
    28    18    19    1
    29     4    10    1
    30    10    11    2
    31    31    34    1
    32    34    35    1
    33    35    28    1
    34    10     1   am
    35     9     3   ar
    36    18    12   ar
    37    21    22    1
    38    21    23    1
@<TRIPOS>MOLECULE
*****
 35 38 0 0 0
SMALL
GASTEIGER

@<TRIPOS>ATOM
      1 N          62.8337   89.3403   11.9909 N.am    1  UNL1       -0.2623
      2 C          62.6337   88.2973   10.9315 C.3     1  UNL1        0.1226
      3 C          62.8412   86.9517   11.5609 C.ar    1  UNL1        0.0196
      4 C          63.1694   87.1630   13.0092 C.ar    1  UNL1        0.1319
      5 N          63.4301   85.9838   13.8989 N.ar    1  UNL1       -0.2456
      6 C          63.3626   84.5933   13.3402 C.ar    1  UNL1        0.0568
      7 C          63.6234   83.4141   14.2300 C.3     1  UNL1        0.0518
      8 C          63.0344   84.3821   11.8920 C.ar    1  UNL1        0.0068
      9 C          62.7737   85.5612   11.0022 C.ar    1  UNL1       -0.0015
     10 C          63.1648   88.6392   13.2749 C.2     1  UNL1        0.2671
     11 O          63.4425   89.2986   14.5933 O.2     1  UNL1       -0.2682
     12 C          62.4455   85.3499    9.5539 C.ar    1  UNL1        0.0102
     13 C          63.4234   84.6495    8.6577 C.ar    1  UNL1        0.0017
     14 C          63.0951   84.4382    7.2094 C.ar    1  UNL1        0.0114
     15 C          61.7889   84.9273    6.6574 C.ar    1  UNL1        0.0585
     16 CL         61.4606   84.7159    5.2091 Cl      1  UNL1       -0.0822
     17 C          60.8110   85.6277    7.5535 C.ar    1  UNL1        0.0228
     18 C          61.1393   85.8390    9.0018 C.ar    1  UNL1        0.0585
     19 CL         60.1615   86.5394    9.8980 Cl      1  UNL1       -0.0822
     20 C          62.9669   82.9915   11.3334 C.3     1  UNL1        0.0934
     21 N          64.2271   82.2793   10.9401 N.3     1  UNL1       -0.3174
     22 H          64.6569   82.7600   10.1498 H       1  UNL1        0.1192
     23 H          64.0065   81.3193   10.6750 H       1  UNL1        0.1192
     24 C          62.7221   90.8239   11.7997 C.3     1  UNL1        0.1798
     25 C          69.1573   93.6886   15.4579 C.3     1  UNL1        0.0948
     26 C          67.9356   92.8799   15.7799 C.2     1  UNL1        0.2262
     27 O          67.7120   92.3832   17.1774 O.2     1  UNL1       -0.2749
     28 N          66.9376   92.5681   14.7044 N.am    1  UNL1       -0.2760
     29 C          67.1613   93.0649   13.3068 C.3     1  UNL1        0.1149
     30 C          66.1634   92.7531   12.2313 C.3     1  UNL1        0.1150
     31 N          64.9418   91.9444   12.5533 N.am    1  UNL1       -0.2746
     32 C          63.9438   91.6325   11.4778 C.2     1  UNL1        0.2461
     33 O          64.1674   92.1294   10.0802 O.2     1  UNL1       -0.2730
     34 C          64.7181   91.4476   13.9508 C.3     1  UNL1        0.1150
     35 C          65.7161   91.7594   15.0264 C.3     1  UNL1        0.1149
@<TRIPOS>BOND
     1    25    26    1
     2    26    27    2
     3    26    28   am
     4    28    29    1
     5    29    30    1
     6    30    31    1
     7    31    32   am
     8    32    33    2
     9    32    24    1
    10    24     1    1
    11     1     2    1
    12     2     3    1
    13     3     4   ar
    14     4     5   ar
    15     5     6   ar
    16     6     7    1
    17     6     8   ar
    18     8    20    1
    19    20    21    1
    20     8     9   ar
    21     9    12    1
    22    12    13   ar
    23    13    14   ar
    24    14    15   ar
    25    15    16    1
    26    15    17   ar
    27    17    18   ar
    28    18    19    1
    29     4    10    1
    30    10    11    2
    31    31    34    1
    32    34    35    1
    33    35    28    1
    34    10     1   am
    35     9     3   ar
    36    18    12   ar
    37    21    22    1
    38    21    23    1
@<TRIPOS>MOLECULE
*****
 35 38 0 0 0
SMALL
GASTEIGER

@<TRIPOS>ATOM
      1 N          64.1267   87.2680   14.6609 N.am    1  UNL1       -0.2623
      2 C          64.8993   88.5494   14.7659 C.3     1  UNL1        0.1226
      3 C          64.5000   89.4269   13.6167 C.ar    1  UNL1        0.0196
      4 C          63.4806   88.6878   12.8015 C.ar    1  UNL1        0.1319
      5 N          62.8942   89.3252   11.5768 N.ar    1  UNL1       -0.2456
      6 C          63.3271   90.7018   11.1674 C.ar    1  UNL1        0.0568
      7 C          62.7406   91.3392    9.9427 C.3     1  UNL1        0.0518
      8 C          64.3464   91.4409   11.9826 C.ar    1  UNL1        0.0068
      9 C          64.9329   90.8034   13.2073 C.ar    1  UNL1       -0.0015
     10 C          63.2499   87.3535   13.4468 C.2     1  UNL1        0.2671
     11 O          62.3078   86.2912   12.9631 O.2     1  UNL1       -0.2682
     12 C          65.9523   91.5426   14.0225 C.ar    1  UNL1        0.0102
     13 C          67.3195   91.7983   13.4610 C.ar    1  UNL1        0.0017
     14 C          68.3389   92.5375   14.2762 C.ar    1  UNL1        0.0114
     15 C          67.9909   93.0210   15.6529 C.ar    1  UNL1        0.0585
     16 CL         69.0103   93.7602   16.4681 Cl      1  UNL1       -0.0822
     17 C          66.6237   92.7653   16.2144 C.ar    1  UNL1        0.0228
     18 C          65.6044   92.0261   15.3991 C.ar    1  UNL1        0.0585
     19 CL         64.2372   91.7704   15.9605 Cl      1  UNL1       -0.0822
     20 C          64.7794   92.8175   11.5731 C.3     1  UNL1        0.0934
     21 N          65.6704   92.9997   10.3803 N.3     1  UNL1       -0.3174
     22 H          66.5820   92.5835   10.5701 H       1  UNL1        0.1192
     23 H          65.7842   93.9953   10.1898 H       1  UNL1        0.1192
     24 C          64.2153   86.1052   15.6043 C.3     1  UNL1        0.1798
     25 C          62.7088   80.1958   10.5239 C.3     1  UNL1        0.0948
     26 C          63.6517   81.3534   10.6695 C.2     1  UNL1        0.2262
     27 O          64.6893   81.6122    9.6178 O.2     1  UNL1       -0.2749
     28 N          63.5569   82.2520   11.8668 N.am    1  UNL1       -0.2760
     29 C          62.5192   81.9931   12.9185 C.3     1  UNL1        0.1149
     30 C          62.4243   82.8916   14.1159 C.3     1  UNL1        0.1150
     31 N          63.3672   84.0491   14.2614 N.am    1  UNL1       -0.2746
     32 C          63.2725   84.9477   15.4587 C.2     1  UNL1        0.2461
     33 O          62.2348   84.6888   16.5104 O.2     1  UNL1       -0.2730
     34 C          64.4049   84.3080   13.2097 C.3     1  UNL1        0.1150
     35 C          64.4998   83.4094   12.0123 C.3     1  UNL1        0.1149
@<TRIPOS>BOND
     1    25    26    1
     2    26    27    2
     3    26    28   am
     4    28    29    1
     5    29    30    1
     6    30    31    1
     7    31    32   am
     8    32    33    2
     9    32    24    1
    10    24     1    1
    11     1     2    1
    12     2     3    1
    13     3     4   ar
    14     4     5   ar
    15     5     6   ar
    16     6     7    1
    17     6     8   ar
    18     8    20    1
    19    20    21    1
    20     8     9   ar
    21     9    12    1
    22    12    13   ar
    23    13    14   ar
    24    14    15   ar
    25    15    16    1
    26    15    17   ar
    27    17    18   ar
    28    18    19    1
    29     4    10    1
    30    10    11    2
    31    31    34    1
    32    34    35    1
    33    35    28    1
    34    10     1   am
    35     9     3   ar
    36    18    12   ar
    37    21    22    1
    38    21    23    1
@<TRIPOS>MOLECULE
*****
 35 38 0 0 0
SMALL
GASTEIGER

@<TRIPOS>ATOM
      1 N          62.6870   90.6072   13.1119 N.am    1  UNL1       -0.2623
      2 C          63.6734   91.4268   12.3340 C.3     1  UNL1        0.1226
      3 C          64.8978   91.6062   13.1817 C.ar    1  UNL1        0.0196
      4 C          64.6681   90.8974   14.4836 C.ar    1  UNL1        0.1319
      5 N          65.7328   90.9058   15.5401 N.ar    1  UNL1       -0.2456
      6 C          67.0272   91.6229   15.2948 C.ar    1  UNL1        0.0568
      7 C          68.0920   91.6312   16.3514 C.3     1  UNL1        0.0518
      8 C          67.2569   92.3316   13.9930 C.ar    1  UNL1        0.0068
      9 C          66.1922   92.3233   12.9364 C.ar    1  UNL1       -0.0015
     10 C          63.3017   90.2800   14.4405 C.2     1  UNL1        0.2671
     11 O          62.6623   89.4765   15.5339 O.2     1  UNL1       -0.2682
     12 C          66.4219   93.0321   11.6345 C.ar    1  UNL1        0.0102
     13 C          65.6763   94.2968   11.3273 C.ar    1  UNL1        0.0017
     14 C          65.9061   95.0055   10.0254 C.ar    1  UNL1        0.0114
     15 C          66.8816   94.4495    9.0308 C.ar    1  UNL1        0.0585
     16 CL         67.1114   95.1583    7.7289 Cl      1  UNL1       -0.0822
     17 C          67.6272   93.1848    9.3380 C.ar    1  UNL1        0.0228
     18 C          67.3974   92.4761   10.6398 C.ar    1  UNL1        0.0585
     19 CL         68.1431   91.2114   10.9471 Cl      1  UNL1       -0.0822
     20 C          68.5514   93.0488   13.7476 C.3     1  UNL1        0.0934
     21 N          69.8360   92.2769   13.6833 N.3     1  UNL1       -0.3174
     22 H          70.0357   91.8724   14.5980 H       1  UNL1        0.1192
     23 H          70.5955   92.9026   13.4150 H       1  UNL1        0.1192
     24 C          61.3249   90.1884   12.6436 C.3     1  UNL1        0.1798
     25 C          62.7199   84.4286    7.3634 C.3     1  UNL1        0.0948
     26 C          62.9577   84.7171    8.8162 C.2     1  UNL1        0.2262
     27 O          63.6631   83.7099    9.6751 O.2     1  UNL1       -0.2749
     28 N          62.4900   86.0128    9.4098 N.am    1  UNL1       -0.2760
     29 C          61.7846   87.0201    8.5509 C.3     1  UNL1        0.1149
     30 C          61.3170   88.3158    9.1445 C.3     1  UNL1        0.1150
     31 N          61.5548   88.6042   10.5972 N.am    1  UNL1       -0.2746
     32 C          61.0872   89.8999   11.1909 C.2     1  UNL1        0.2461
     33 O          60.3817   90.9071   10.3320 O.2     1  UNL1       -0.2730
     34 C          62.2602   87.5969   11.4562 C.3     1  UNL1        0.1150
     35 C          62.7278   86.3012   10.8625 C.3     1  UNL1        0.1149
@<TRIPOS>BOND
     1    25    26    1
     2    26    27    2
     3    26    28   am
     4    28    29    1
     5    29    30    1
     6    30    31    1
     7    31    32   am
     8    32    33    2
     9    32    24    1
    10    24     1    1
    11     1     2    1
    12     2     3    1
    13     3     4   ar
    14     4     5   ar
    15     5     6   ar
    16     6     7    1
    17     6     8   ar
    18     8    20    1
    19    20    21    1
    20     8     9   ar
    21     9    12    1
    22    12    13   ar
    23    13    14   ar
    24    14    15   ar
    25    15    16    1
    26    15    17   ar
    27    17    18   ar
    28    18    19    1
    29     4    10    1
    30    10    11    2
    31    31    34    1
    32    34    35    1
    33    35    28    1
    34    10     1   am
    35     9     3   ar
    36    18    12   ar
    37    21    22    1
    38    21    23    1
