@<TRIPOS>MOLECULE
*****
 36 40 0 0 0
SMALL
GASTEIGER

@<TRIPOS>ATOM
      1 C          59.5255   87.5828    9.8322 C.3     1  UNL1        0.0177
      2 C          60.6948   87.1416   10.6617 C.3     1  UNL1        0.0626
      3 C          60.9412   85.6802   10.8933 C.3     1  UNL1        0.0436
      4 C          62.1105   85.2389   11.7228 C.2     1  UNL1       -0.0045
      5 C          63.0334   86.2591   12.3207 C.2     1  UNL1        0.0735
      6 N          64.0959   85.5296   13.0881 N.2     1  UNL1       -0.2523
      7 C          63.8297   84.0586   12.9645 C.2     1  UNL1        0.0627
      8 C          64.5461   82.8596   13.5112 C.3     1  UNL1        0.0717
      9 C          64.0354   81.4808   13.2141 C.2     1  UNL1       -0.0198
     10 C          62.8084   81.3012   12.3703 C.2     1  UNL1       -0.0042
     11 C          62.0920   82.5002   11.8235 C.2     1  UNL1        0.0006
     12 C          62.6026   83.8790   12.1206 C.2     1  UNL1        0.0111
     13 C          62.7870   87.7205   12.0892 C.3     1  UNL1        0.1250
     14 N          61.6177   88.1618   11.2597 N.3     1  UNL1       -0.2642
     15 C          63.7098   88.7407   12.6871 C.ar    1  UNL1        0.0528
     16 C          64.2376   88.5507   14.0782 C.ar    1  UNL1        0.1399
     17 F          63.8425   87.3405   14.8714 F       1  UNL1       -0.2044
     18 C          65.1605   89.5710   14.6761 C.ar    1  UNL1        0.0295
     19 C          65.5555   90.7812   13.8829 C.ar    1  UNL1        0.0044
     20 C          65.0278   90.9712   12.4917 C.ar    1  UNL1        0.0295
     21 C          64.1049   89.9510   11.8938 C.ar    1  UNL1        0.1399
     22 F          63.5771   90.1409   10.5027 F       1  UNL1       -0.2044
     23 C          66.4784   91.8013   14.4808 C.ar    1  UNL1        0.0001
     24 C          67.5077   91.3825   15.4884 C.ar    1  UNL1        0.0000
     25 C          68.4305   92.4027   16.0863 C.ar    1  UNL1        0.0011
     26 C          68.3242   93.8418   15.6767 C.ar    1  UNL1        0.0140
     27 C          67.2949   94.2607   14.6691 C.ar    1  UNL1        0.0011
     28 C          66.3720   93.2404   14.0711 C.ar    1  UNL1        0.0000
     29 C          69.2469   94.8620   16.2745 C.2     1  UNL1        0.0729
     30 O          70.6265   95.0448   15.7149 O.co2   1  UNL1       -0.5446
     31 O          68.7901   95.6995   17.4322 O.co2   1  UNL1       -0.5446
     32 C          61.3713   89.6232   11.0281 C.3     1  UNL1        0.1055
     33 C          60.0303   90.2168   11.3431 C.3     1  UNL1        0.1486
     34 C          60.1808   89.7969   12.7752 C.3     1  UNL1        0.0368
     35 C          59.8797   90.6367    9.9110 C.3     1  UNL1        0.0368
     36 F          58.6893   90.8104   11.6582 F       1  UNL1       -0.2386
@<TRIPOS>UNITY_ATOM_ATTR
30 1
charge -1
@<TRIPOS>BOND
     1     2     1    1
     2     2     3    1
     3     3     4    1
     4     4     5    2
     5     5     6    1
     6     6     7    2
     7     7     8    1
     8     8     9    1
     9     9    10    2
    10    10    11    1
    11    11    12    2
    12     5    13    1
    13    13    15    1
    14    15    16   ar
    15    16    17    1
    16    16    18   ar
    17    18    19   ar
    18    19    23    1
    19    23    24   ar
    20    24    25   ar
    21    25    26   ar
    22    26    29    1
    23    29    30   ar
    24    29    31   ar
    25    26    27   ar
    26    27    28   ar
    27    19    20   ar
    28    20    21   ar
    29    21    22    1
    30    13    14    1
    31    14    32    1
    32    32    33    1
    33    33    34    1
    34    33    35    1
    35    33    36    1
    36    14     2    1
    37    12     4    1
    38    21    15   ar
    39    12     7    1
    40    28    23   ar
@<TRIPOS>MOLECULE
*****
 36 40 0 0 0
SMALL
GASTEIGER

@<TRIPOS>ATOM
      1 C          65.0466   87.9553   15.3007 C.3     1  UNL1        0.0177
      2 C          64.3113   87.1195   14.2952 C.3     1  UNL1        0.0626
      3 C          64.3100   85.6247   14.4198 C.3     1  UNL1        0.0436
      4 C          63.5748   84.7889   13.4143 C.2     1  UNL1       -0.0045
      5 C          62.8408   85.4480   12.2843 C.2     1  UNL1        0.0735
      6 N          62.2096   84.3719   11.4515 N.2     1  UNL1       -0.2523
      7 C          62.5535   83.0478   12.0668 C.2     1  UNL1        0.0627
      8 C          62.2073   81.6407   11.6791 C.3     1  UNL1        0.0717
      9 C          62.7049   80.4914   12.5046 C.2     1  UNL1       -0.0198
     10 C          63.5487   80.7492   13.7177 C.2     1  UNL1       -0.0042
     11 C          63.8948   82.1562   14.1053 C.2     1  UNL1        0.0006
     12 C          63.3972   83.3055   13.2799 C.2     1  UNL1        0.0111
     13 C          62.8421   86.9428   12.1598 C.3     1  UNL1        0.1250
     14 N          63.5773   87.7786   13.1652 N.3     1  UNL1       -0.2642
     15 C          62.1081   87.6019   11.0298 C.ar    1  UNL1        0.0528
     16 C          62.3056   87.1181    9.6238 C.ar    1  UNL1        0.1399
     17 F          63.2370   85.9752    9.3477 F       1  UNL1       -0.2044
     18 C          61.5715   87.7772    8.4938 C.ar    1  UNL1        0.0295
     19 C          60.6401   88.9201    8.7698 C.ar    1  UNL1        0.0044
     20 C          60.4426   89.4039   10.1759 C.ar    1  UNL1        0.0295
     21 C          61.1766   88.7448   11.3058 C.ar    1  UNL1        0.1399
     22 F          60.9792   89.2285   12.7119 F       1  UNL1       -0.2044
     23 C          59.9061   89.5791    7.6398 C.ar    1  UNL1        0.0001
     24 C          58.4593   89.2640    7.4002 C.ar    1  UNL1        0.0000
     25 C          57.7253   89.9230    6.2702 C.ar    1  UNL1        0.0011
     26 C          58.4382   90.8973    5.3798 C.ar    1  UNL1        0.0140
     27 C          59.8850   91.2125    5.6195 C.ar    1  UNL1        0.0011
     28 C          60.6189   90.5534    6.7495 C.ar    1  UNL1        0.0000
     29 C          57.7043   91.5564    4.2498 C.2     1  UNL1        0.0729
     30 O          56.2104   91.6822    4.2978 O.co2   1  UNL1       -0.5446
     31 O          58.4644   92.0897    3.0717 O.co2   1  UNL1       -0.5446
     32 C          63.5786   89.2734   13.0406 C.3     1  UNL1        0.1055
     33 C          63.7623   90.1275   14.2599 C.3     1  UNL1        0.1486
     34 C          62.5228   89.5347   14.8619 C.3     1  UNL1        0.0368
     35 C          65.0018   90.7202   13.6580 C.3     1  UNL1        0.0368
     36 F          63.9460   90.9815   15.4793 F       1  UNL1       -0.2386
@<TRIPOS>UNITY_ATOM_ATTR
30 1
charge -1
@<TRIPOS>BOND
     1     2     1    1
     2     2     3    1
     3     3     4    1
     4     4     5    2
     5     5     6    1
     6     6     7    2
     7     7     8    1
     8     8     9    1
     9     9    10    2
    10    10    11    1
    11    11    12    2
    12     5    13    1
    13    13    15    1
    14    15    16   ar
    15    16    17    1
    16    16    18   ar
    17    18    19   ar
    18    19    23    1
    19    23    24   ar
    20    24    25   ar
    21    25    26   ar
    22    26    29    1
    23    29    30   ar
    24    29    31   ar
    25    26    27   ar
    26    27    28   ar
    27    19    20   ar
    28    20    21   ar
    29    21    22    1
    30    13    14    1
    31    14    32    1
    32    32    33    1
    33    33    34    1
    34    33    35    1
    35    33    36    1
    36    14     2    1
    37    12     4    1
    38    21    15   ar
    39    12     7    1
    40    28    23   ar
@<TRIPOS>MOLECULE
*****
 36 40 0 0 0
SMALL
GASTEIGER

@<TRIPOS>ATOM
      1 C          64.2557   92.0947   17.5537 C.3     1  UNL1        0.0177
      2 C          64.4856   91.7041   16.1238 C.3     1  UNL1        0.0626
      3 C          64.9744   92.7230   15.1373 C.3     1  UNL1        0.0436
      4 C          65.2043   92.3324   13.7074 C.2     1  UNL1       -0.0045
      5 C          64.9456   90.9230   13.2640 C.2     1  UNL1        0.0735
      6 N          65.2602   90.8326   11.8002 N.2     1  UNL1       -0.2523
      7 C          65.7135   92.1860   11.3389 C.2     1  UNL1        0.0627
      8 C          66.1532   92.6941    9.9979 C.3     1  UNL1        0.0717
      9 C          66.5583   94.1291    9.8356 C.2     1  UNL1       -0.0198
     10 C          66.5238   95.0561   11.0144 C.2     1  UNL1       -0.0042
     11 C          66.0841   94.5481   12.3554 C.2     1  UNL1        0.0006
     12 C          65.6789   93.1130   12.5177 C.2     1  UNL1        0.0111
     13 C          64.4568   89.9042   14.2505 C.3     1  UNL1        0.1250
     14 N          64.2269   90.2947   15.6804 N.3     1  UNL1       -0.2642
     15 C          64.1981   88.4948   13.8071 C.ar    1  UNL1        0.0528
     16 C          64.8849   87.3535   14.4966 C.ar    1  UNL1        0.1399
     17 F          65.8306   87.6216   15.6297 F       1  UNL1       -0.2044
     18 C          64.6261   85.9441   14.0532 C.ar    1  UNL1        0.0295
     19 C          63.6804   85.6760   12.9201 C.ar    1  UNL1        0.0044
     20 C          62.9935   86.8173   12.2305 C.ar    1  UNL1        0.0295
     21 C          63.2523   88.2267   12.6739 C.ar    1  UNL1        0.1399
     22 F          62.5655   89.3680   11.9844 F       1  UNL1       -0.2044
     23 C          63.4217   84.2666   12.4767 C.ar    1  UNL1        0.0001
     24 C          62.7281   83.3062   13.3968 C.ar    1  UNL1        0.0000
     25 C          62.4693   81.8968   12.9534 C.ar    1  UNL1        0.0011
     26 C          62.9041   81.4478   11.5898 C.ar    1  UNL1        0.0140
     27 C          63.5977   82.4082   10.6696 C.ar    1  UNL1        0.0011
     28 C          63.8565   83.8176   11.1131 C.ar    1  UNL1        0.0000
     29 C          62.6454   80.0384   11.1463 C.2     1  UNL1        0.0729
     30 O          62.3520   78.9744   12.1620 O.co2   1  UNL1       -0.5446
     31 O          62.6801   79.6931    9.6870 O.co2   1  UNL1       -0.5446
     32 C          63.7381   89.2758   16.6668 C.3     1  UNL1        0.1055
     33 C          62.3414   88.7392   16.5610 C.3     1  UNL1        0.1486
     34 C          62.7498   87.5230   17.3382 C.3     1  UNL1        0.0368
     35 C          61.9330   89.9553   15.7838 C.3     1  UNL1        0.0368
     36 F          60.9447   88.2025   16.4552 F       1  UNL1       -0.2386
@<TRIPOS>UNITY_ATOM_ATTR
30 1
charge -1
@<TRIPOS>BOND
     1     2     1    1
     2     2     3    1
     3     3     4    1
     4     4     5    2
     5     5     6    1
     6     6     7    2
     7     7     8    1
     8     8     9    1
     9     9    10    2
    10    10    11    1
    11    11    12    2
    12     5    13    1
    13    13    15    1
    14    15    16   ar
    15    16    17    1
    16    16    18   ar
    17    18    19   ar
    18    19    23    1
    19    23    24   ar
    20    24    25   ar
    21    25    26   ar
    22    26    29    1
    23    29    30   ar
    24    29    31   ar
    25    26    27   ar
    26    27    28   ar
    27    19    20   ar
    28    20    21   ar
    29    21    22    1
    30    13    14    1
    31    14    32    1
    32    32    33    1
    33    33    34    1
    34    33    35    1
    35    33    36    1
    36    14     2    1
    37    12     4    1
    38    21    15   ar
    39    12     7    1
    40    28    23   ar
@<TRIPOS>MOLECULE
*****
 36 40 0 0 0
SMALL
GASTEIGER

@<TRIPOS>ATOM
      1 C          64.5359   88.4055   15.4756 C.3     1  UNL1        0.0177
      2 C          63.9525   87.5395   14.3986 C.3     1  UNL1        0.0626
      3 C          64.0770   86.0473   14.4865 C.3     1  UNL1        0.0436
      4 C          63.4937   85.1812   13.4096 C.2     1  UNL1       -0.0045
      5 C          62.7858   85.8075   12.2448 C.2     1  UNL1        0.0735
      6 N          62.3151   84.7061   11.3419 N.2     1  UNL1       -0.2523
      7 C          62.7321   83.3991   11.9486 C.2     1  UNL1        0.0627
      8 C          62.5427   81.9796   11.5024 C.3     1  UNL1        0.0717
      9 C          63.0816   80.8538   12.3343 C.2     1  UNL1       -0.0198
     10 C          63.8100   81.1475   13.6122 C.2     1  UNL1       -0.0042
     11 C          63.9994   82.5670   14.0584 C.2     1  UNL1        0.0006
     12 C          63.4605   83.6928   13.2265 C.2     1  UNL1        0.0111
     13 C          62.6613   87.2997   12.1569 C.3     1  UNL1        0.1250
     14 N          63.2446   88.1657   13.2338 N.3     1  UNL1       -0.2642
     15 C          61.9534   87.9260   10.9922 C.ar    1  UNL1        0.0528
     16 C          60.9280   88.9957   11.2247 C.ar    1  UNL1        0.1399
     17 F          60.6104   89.4393   12.6219 F       1  UNL1       -0.2044
     18 C          60.2201   89.6219   10.0598 C.ar    1  UNL1        0.0295
     19 C          60.5377   89.1784    8.6625 C.ar    1  UNL1        0.0044
     20 C          61.5631   88.1086    8.4300 C.ar    1  UNL1        0.0295
     21 C          62.2709   87.4824    9.5948 C.ar    1  UNL1        0.1399
     22 F          63.2964   86.4126    9.3624 F       1  UNL1       -0.2044
     23 C          59.8298   89.8046    7.4977 C.ar    1  UNL1        0.0001
     24 C          60.5927   90.6543    6.5250 C.ar    1  UNL1        0.0000
     25 C          59.8848   91.2805    5.3602 C.ar    1  UNL1        0.0011
     26 C          58.4140   91.0571    5.1681 C.ar    1  UNL1        0.0140
     27 C          57.6511   90.2075    6.1409 C.ar    1  UNL1        0.0011
     28 C          58.3590   89.5813    7.3057 C.ar    1  UNL1        0.0000
     29 C          57.7061   91.6833    4.0034 C.2     1  UNL1        0.0729
     30 O          56.2089   91.7750    3.9968 O.co2   1  UNL1       -0.5446
     31 O          58.4953   92.2178    2.8452 O.co2   1  UNL1       -0.5446
     32 C          63.1201   89.6580   13.1459 C.3     1  UNL1        0.1055
     33 C          64.2770   90.4798   12.6600 C.3     1  UNL1        0.1486
     34 C          63.6722   90.5199   11.2879 C.3     1  UNL1        0.0368
     35 C          64.8817   90.4398   14.0321 C.3     1  UNL1        0.0368
     36 F          65.4339   91.3017   12.1741 F       1  UNL1       -0.2386
@<TRIPOS>UNITY_ATOM_ATTR
30 1
charge -1
@<TRIPOS>BOND
     1     2     1    1
     2     2     3    1
     3     3     4    1
     4     4     5    2
     5     5     6    1
     6     6     7    2
     7     7     8    1
     8     8     9    1
     9     9    10    2
    10    10    11    1
    11    11    12    2
    12     5    13    1
    13    13    15    1
    14    15    16   ar
    15    16    17    1
    16    16    18   ar
    17    18    19   ar
    18    19    23    1
    19    23    24   ar
    20    24    25   ar
    21    25    26   ar
    22    26    29    1
    23    29    30   ar
    24    29    31   ar
    25    26    27   ar
    26    27    28   ar
    27    19    20   ar
    28    20    21   ar
    29    21    22    1
    30    13    14    1
    31    14    32    1
    32    32    33    1
    33    33    34    1
    34    33    35    1
    35    33    36    1
    36    14     2    1
    37    12     4    1
    38    21    15   ar
    39    12     7    1
    40    28    23   ar
@<TRIPOS>MOLECULE
*****
 36 40 0 0 0
SMALL
GASTEIGER

@<TRIPOS>ATOM
      1 C          60.7654   90.1469    8.3824 C.3     1  UNL1        0.0177
      2 C          61.5047   89.4932    9.5121 C.3     1  UNL1        0.0626
      3 C          62.1358   90.3344   10.5817 C.3     1  UNL1        0.0436
      4 C          62.8751   89.6807   11.7114 C.2     1  UNL1       -0.0045
      5 C          62.9833   88.1858   11.7714 C.2     1  UNL1        0.0735
      6 N          63.7692   87.8269   12.9976 N.2     1  UNL1       -0.2523
      7 C          64.1467   89.0999   13.6954 C.2     1  UNL1        0.0627
      8 C          64.9222   89.3638   14.9519 C.3     1  UNL1        0.0717
      9 C          65.1452   90.7734   15.4135 C.2     1  UNL1       -0.0198
     10 C          64.5926   91.9192   14.6185 C.2     1  UNL1       -0.0042
     11 C          63.8171   91.6553   13.3620 C.2     1  UNL1        0.0006
     12 C          63.5941   90.2456   12.9004 C.2     1  UNL1        0.0111
     13 C          62.3522   87.3446   10.7017 C.3     1  UNL1        0.1250
     14 N          61.6129   87.9983    9.5721 N.3     1  UNL1       -0.2642
     15 C          62.4603   85.8497   10.7618 C.ar    1  UNL1        0.0528
     16 C          63.0187   85.0907    9.5948 C.ar    1  UNL1        0.1399
     17 F          63.4690   85.8266    8.3677 F       1  UNL1       -0.2044
     18 C          63.1269   83.5958    9.6548 C.ar    1  UNL1        0.0295
     19 C          62.6766   82.8599   10.8819 C.ar    1  UNL1        0.0044
     20 C          62.1182   83.6190   12.0490 C.ar    1  UNL1        0.0295
     21 C          62.0101   85.1138   11.9889 C.ar    1  UNL1        0.1399
     22 F          61.4516   85.8729   13.1559 F       1  UNL1       -0.2044
     23 C          62.7848   81.3651   10.9419 C.ar    1  UNL1        0.0001
     24 C          62.6638   80.6566   12.2586 C.ar    1  UNL1        0.0000
     25 C          62.7720   79.1617   12.3186 C.ar    1  UNL1        0.0011
     26 C          63.0011   78.3752   11.0619 C.ar    1  UNL1        0.0140
     27 C          63.1221   79.0837    9.7453 C.ar    1  UNL1        0.0011
     28 C          63.0139   80.5787    9.6854 C.ar    1  UNL1        0.0000
     29 C          63.1093   76.8804   11.1219 C.2     1  UNL1        0.0729
     30 O          63.5062   76.2079   12.4025 O.co2   1  UNL1       -0.5446
     31 O          62.8206   76.0580    9.9010 O.co2   1  UNL1       -0.5446
     32 C          60.9818   87.1571    8.5024 C.3     1  UNL1        0.1055
     33 C          59.5029   86.9071    8.5199 C.3     1  UNL1        0.1486
     34 C          59.5774   86.3692    7.1216 C.3     1  UNL1        0.0368
     35 C          59.4284   87.4449    9.9181 C.3     1  UNL1        0.0368
     36 F          58.0240   86.6571    8.5373 F       1  UNL1       -0.2386
@<TRIPOS>UNITY_ATOM_ATTR
30 1
charge -1
@<TRIPOS>BOND
     1     2     1    1
     2     2     3    1
     3     3     4    1
     4     4     5    2
     5     5     6    1
     6     6     7    2
     7     7     8    1
     8     8     9    1
     9     9    10    2
    10    10    11    1
    11    11    12    2
    12     5    13    1
    13    13    15    1
    14    15    16   ar
    15    16    17    1
    16    16    18   ar
    17    18    19   ar
    18    19    23    1
    19    23    24   ar
    20    24    25   ar
    21    25    26   ar
    22    26    29    1
    23    29    30   ar
    24    29    31   ar
    25    26    27   ar
    26    27    28   ar
    27    19    20   ar
    28    20    21   ar
    29    21    22    1
    30    13    14    1
    31    14    32    1
    32    32    33    1
    33    33    34    1
    34    33    35    1
    35    33    36    1
    36    14     2    1
    37    12     4    1
    38    21    15   ar
    39    12     7    1
    40    28    23   ar
