@<TRIPOS>MOLECULE
*****
 33 35 0 0 0
SMALL
GASTEIGER

@<TRIPOS>ATOM
      1 C          64.1428   91.5677   11.1462 C.ar    1  UNL1        0.2187
      2 N          65.3262   92.3401   10.6431 N.ar    1  UNL1       -0.2057
      3 C          66.4143   92.7474   11.5919 C.ar    1  UNL1        0.1799
      4 C          66.3191   92.3823   13.0436 C.ar    1  UNL1        0.3398
      5 C          65.1358   91.6098   13.5467 C.ar    1  UNL1        0.2031
      6 N          64.0477   91.2025   12.5980 N.ar    1  UNL1       -0.1927
      7 N          67.4072   92.7896   13.9923 N.pl3   1  UNL1        0.0855
      8 O          67.0807   93.6276   15.1929 O.2     1  UNL1        0.0416
      9 O          68.8218   92.3590   13.7405 O.co2   1  UNL1       -0.5759
     10 N          63.0547   91.1603   10.1975 N.pl3   1  UNL1       -0.2990
     11 H          63.1338   91.3696    9.2387 H       1  UNL1        0.1500
     12 C          61.8462   90.4342   10.7095 C.3     1  UNL1        0.1170
     13 C          60.9027   88.2988    9.5693 C.ar    1  UNL1        0.0229
     14 C          60.8282   86.8040    9.4706 C.ar    1  UNL1        0.0059
     15 C          61.6227   85.9496   10.4133 C.ar    1  UNL1        0.0005
     16 C          62.4917   86.5900   11.4547 C.ar    1  UNL1       -0.0002
     17 C          62.5662   88.0848   11.5535 C.ar    1  UNL1       -0.0021
     18 C          61.7717   88.9393   10.6108 C.ar    1  UNL1        0.0031
     19 C          59.3522   88.5200    7.4964 C.3     1  UNL1        0.0741
     20 S          60.1082   89.1533    8.6266 S.3     1  UNL1       -0.1130
     21 N          65.0406   91.2447   14.9984 N.pl3   1  UNL1       -0.3131
     22 H          65.7902   91.4411   15.6056 H       1  UNL1        0.1484
     23 C          63.8032   90.5802   15.5251 C.3     1  UNL1        0.0883
     24 C          63.7513   89.0867   15.6552 C.3     1  UNL1        0.0196
     25 C          64.3737   88.2200   14.6009 C.3     1  UNL1        0.0017
     26 C          64.3218   86.7266   14.7311 C.3     1  UNL1        0.0014
     27 C          63.6476   86.0999   15.9155 C.3     1  UNL1        0.0155
     28 C          63.0252   86.9666   16.9697 C.3     1  UNL1        0.0014
     29 C          63.0771   88.4601   16.8395 C.3     1  UNL1        0.0017
     30 C          63.5957   84.6064   16.0456 C.3     1  UNL1        0.0651
     31 N          64.6166   83.7569   15.3483 N.3     1  UNL1       -0.3211
     32 H          64.4995   83.8445   14.3388 H       1  UNL1        0.1189
     33 H          64.4918   82.7822   15.6218 H       1  UNL1        0.1189
@<TRIPOS>UNITY_ATOM_ATTR
7 1
charge 1
9 1
charge -1
@<TRIPOS>BOND
     1    19    20    1
     2    20    13    1
     3    13    14   ar
     4    14    15   ar
     5    15    16   ar
     6    16    17   ar
     7    17    18   ar
     8    18    12    1
     9    12    10    1
    10    10     1    1
    11     1     2   ar
    12     2     3   ar
    13     3     4   ar
    14     4     7    1
    15     7     8    2
    16     7     9    1
    17     4     5   ar
    18     5    21    1
    19    21    23    1
    20    23    24    1
    21    24    25    1
    22    25    26    1
    23    26    27    1
    24    27    30    1
    25    30    31    1
    26    27    28    1
    27    28    29    1
    28     5     6   ar
    29    18    13   ar
    30     6     1   ar
    31    29    24    1
    32    10    11    1
    33    21    22    1
    34    31    32    1
    35    31    33    1
@<TRIPOS>MOLECULE
*****
 33 35 0 0 0
SMALL
GASTEIGER

@<TRIPOS>ATOM
      1 C          63.4692   86.0260   15.2021 C.ar    1  UNL1        0.2187
      2 N          62.5066   85.1899   15.9922 N.ar    1  UNL1       -0.2057
      3 C          62.2975   83.7480   15.6352 C.ar    1  UNL1        0.1799
      4 C          63.0509   83.1424   14.4883 C.ar    1  UNL1        0.3398
      5 C          64.0135   83.9785   13.6982 C.ar    1  UNL1        0.2031
      6 N          64.2226   85.4203   14.0551 N.ar    1  UNL1       -0.1927
      7 N          62.8417   81.7006   14.1314 N.pl3   1  UNL1        0.0855
      8 O          64.0177   80.7750   14.0290 O.2     1  UNL1        0.0416
      9 O          61.4566   81.1842   13.8770 O.co2   1  UNL1       -0.5759
     10 N          63.6784   87.4679   15.5589 N.pl3   1  UNL1       -0.2990
     11 H          63.1971   87.8607   16.3227 H       1  UNL1        0.1500
     12 C          64.6208   88.3111   14.7522 C.3     1  UNL1        0.1170
     13 C          64.4103   90.6125   13.5651 C.ar    1  UNL1        0.0229
     14 C          63.8883   91.4476   12.4337 C.ar    1  UNL1        0.0059
     15 C          63.0546   90.8166   11.3582 C.ar    1  UNL1        0.0005
     16 C          62.7430   89.3504   11.4140 C.ar    1  UNL1       -0.0002
     17 C          63.2651   88.5153   12.5453 C.ar    1  UNL1       -0.0021
     18 C          64.0987   89.1463   13.6208 C.ar    1  UNL1        0.0031
     19 C          66.6653   91.6306   14.3578 C.3     1  UNL1        0.0741
     20 S          65.2440   91.2435   14.6406 S.3     1  UNL1       -0.1130
     21 N          64.7669   83.3729   12.5513 N.pl3   1  UNL1       -0.3131
     22 H          65.7249   83.1668   12.6457 H       1  UNL1        0.1484
     23 C          64.0607   83.0813   11.2605 C.3     1  UNL1        0.0883
     24 C          63.2401   84.1475   10.5970 C.3     1  UNL1        0.0196
     25 C          63.4742   84.4852    9.1544 C.3     1  UNL1        0.0017
     26 C          62.6537   85.5513    8.4911 C.3     1  UNL1        0.0014
     27 C          61.5991   86.2797    9.2703 C.3     1  UNL1        0.0155
     28 C          61.3650   85.9420   10.7129 C.3     1  UNL1        0.0014
     29 C          62.1855   84.8759   11.3762 C.3     1  UNL1        0.0017
     30 C          60.7786   87.3459    8.6068 C.3     1  UNL1        0.0651
     31 N          59.3322   87.0958    8.2980 N.3     1  UNL1       -0.3211
     32 H          59.2568   86.3604    7.5953 H       1  UNL1        0.1189
     33 H          58.9078   87.9519    7.9411 H       1  UNL1        0.1189
@<TRIPOS>UNITY_ATOM_ATTR
7 1
charge 1
9 1
charge -1
@<TRIPOS>BOND
     1    19    20    1
     2    20    13    1
     3    13    14   ar
     4    14    15   ar
     5    15    16   ar
     6    16    17   ar
     7    17    18   ar
     8    18    12    1
     9    12    10    1
    10    10     1    1
    11     1     2   ar
    12     2     3   ar
    13     3     4   ar
    14     4     7    1
    15     7     8    2
    16     7     9    1
    17     4     5   ar
    18     5    21    1
    19    21    23    1
    20    23    24    1
    21    24    25    1
    22    25    26    1
    23    26    27    1
    24    27    30    1
    25    30    31    1
    26    27    28    1
    27    28    29    1
    28     5     6   ar
    29    18    13   ar
    30     6     1   ar
    31    29    24    1
    32    10    11    1
    33    21    22    1
    34    31    32    1
    35    31    33    1
@<TRIPOS>MOLECULE
*****
 33 35 0 0 0
SMALL
GASTEIGER

@<TRIPOS>ATOM
      1 C          63.6307   86.4630   15.0611 C.ar    1  UNL1        0.2187
      2 N          63.5529   87.1419   16.3964 N.ar    1  UNL1       -0.2057
      3 C          63.6032   88.6387   16.4808 C.ar    1  UNL1        0.1799
      4 C          63.7313   89.4566   15.2300 C.ar    1  UNL1        0.3398
      5 C          63.8091   88.7777   13.8947 C.ar    1  UNL1        0.2031
      6 N          63.7588   87.2810   13.8102 N.ar    1  UNL1       -0.1927
      7 N          63.7816   90.9533   15.3145 N.pl3   1  UNL1        0.0855
      8 O          63.2737   91.6528   16.5404 O.2     1  UNL1        0.0416
      9 O          64.3398   91.7506   14.1731 O.co2   1  UNL1       -0.5759
     10 N          63.5804   84.9663   14.9766 N.pl3   1  UNL1       -0.2990
     11 H          64.2486   84.4235   15.4544 H       1  UNL1        0.1500
     12 C          62.5122   84.2964   14.1641 C.3     1  UNL1        0.1170
     13 C          62.7092   82.0463   12.8802 C.ar    1  UNL1        0.0229
     14 C          63.0759   81.2861   11.6402 C.ar    1  UNL1        0.0059
     15 C          63.6123   82.0155   10.4443 C.ar    1  UNL1        0.0005
     16 C          63.7820   83.5052   10.4883 C.ar    1  UNL1       -0.0002
     17 C          63.4152   84.2654   11.7282 C.ar    1  UNL1       -0.0021
     18 C          62.8789   83.5360   12.9242 C.ar    1  UNL1        0.0031
     19 C          60.7412   80.8703   14.1023 C.3     1  UNL1        0.0741
     20 S          62.1728   81.3169   14.0761 S.3     1  UNL1       -0.1130
     21 N          63.9372   89.5956   12.6438 N.pl3   1  UNL1       -0.3131
     22 H          64.8283   89.8011   12.2792 H       1  UNL1        0.1484
     23 C          62.7076   90.1002   11.9485 C.3     1  UNL1        0.0883
     24 C          62.0093   89.2376   10.9394 C.3     1  UNL1        0.0196
     25 C          60.9178   89.8140   10.0872 C.3     1  UNL1        0.0017
     26 C          60.2195   88.9514    9.0781 C.3     1  UNL1        0.0014
     27 C          60.6127   87.5124    8.9213 C.3     1  UNL1        0.0155
     28 C          61.7042   86.9360    9.7735 C.3     1  UNL1        0.0014
     29 C          62.4025   87.7986   10.7825 C.3     1  UNL1        0.0017
     30 C          59.9143   86.6498    7.9121 C.3     1  UNL1        0.0651
     31 N          58.4189   86.6858    7.8014 N.3     1  UNL1       -0.3211
     32 H          58.0056   86.3158    8.6574 H       1  UNL1        0.1189
     33 H          58.1230   86.1175    7.0078 H       1  UNL1        0.1189
@<TRIPOS>UNITY_ATOM_ATTR
7 1
charge 1
9 1
charge -1
@<TRIPOS>BOND
     1    19    20    1
     2    20    13    1
     3    13    14   ar
     4    14    15   ar
     5    15    16   ar
     6    16    17   ar
     7    17    18   ar
     8    18    12    1
     9    12    10    1
    10    10     1    1
    11     1     2   ar
    12     2     3   ar
    13     3     4   ar
    14     4     7    1
    15     7     8    2
    16     7     9    1
    17     4     5   ar
    18     5    21    1
    19    21    23    1
    20    23    24    1
    21    24    25    1
    22    25    26    1
    23    26    27    1
    24    27    30    1
    25    30    31    1
    26    27    28    1
    27    28    29    1
    28     5     6   ar
    29    18    13   ar
    30     6     1   ar
    31    29    24    1
    32    10    11    1
    33    21    22    1
    34    31    32    1
    35    31    33    1
@<TRIPOS>MOLECULE
*****
 33 35 0 0 0
SMALL
GASTEIGER

@<TRIPOS>ATOM
      1 C          61.5606   89.5755   11.8768 C.ar    1  UNL1        0.2187
      2 N          60.7019   90.5498   11.1262 N.ar    1  UNL1       -0.2057
      3 C          59.9982   90.1191    9.8735 C.ar    1  UNL1        0.1799
      4 C          60.1532   88.7141    9.3714 C.ar    1  UNL1        0.3398
      5 C          61.0119   87.7399   10.1220 C.ar    1  UNL1        0.2031
      6 N          61.7156   88.1705   11.3747 N.ar    1  UNL1       -0.1927
      7 N          59.4495   88.2835    8.1186 N.pl3   1  UNL1        0.0855
      8 O          58.6951   86.9873    8.0899 O.2     1  UNL1        0.0416
      9 O          59.5001   89.1491    6.8946 O.co2   1  UNL1       -0.5759
     10 N          62.2643   90.0061   13.1295 N.pl3   1  UNL1       -0.2990
     11 H          61.7425   90.2595   13.9250 H       1  UNL1        0.1500
     12 C          63.7631   90.0506   13.1704 C.3     1  UNL1        0.1170
     13 C          65.4100   92.0345   13.4897 C.ar    1  UNL1        0.0229
     14 C          66.1406   93.2191   12.9305 C.ar    1  UNL1        0.0059
     15 C          65.9550   93.6047   11.4928 C.ar    1  UNL1        0.0005
     16 C          65.0387   92.8055   10.6143 C.ar    1  UNL1       -0.0002
     17 C          64.3081   91.6209   11.1735 C.ar    1  UNL1       -0.0021
     18 C          64.4937   91.2353   12.6112 C.ar    1  UNL1        0.0031
     19 C          66.4031   92.5235   15.8401 C.3     1  UNL1        0.0741
     20 S          65.5957   91.6490   14.9274 S.3     1  UNL1       -0.1130
     21 N          61.1669   86.3350    9.6199 N.pl3   1  UNL1       -0.3131
     22 H          60.3744   85.8216    9.3411 H       1  UNL1        0.1484
     23 C          62.5293   85.7122    9.5425 C.3     1  UNL1        0.0883
     24 C          62.9117   84.6232   10.5007 C.3     1  UNL1        0.0196
     25 C          62.4411   84.6772   11.9239 C.3     1  UNL1        0.0017
     26 C          62.8235   83.5883   12.8821 C.3     1  UNL1        0.0014
     27 C          63.6764   82.4455   12.4170 C.3     1  UNL1        0.0155
     28 C          64.1470   82.3915   10.9938 C.3     1  UNL1        0.0014
     29 C          63.7646   83.4804   10.0356 C.3     1  UNL1        0.0017
     30 C          64.0588   81.3565   13.3752 C.3     1  UNL1        0.0651
     31 N          63.0027   80.6667   14.1868 N.3     1  UNL1       -0.3211
     32 H          62.5880   81.3312   14.8402 H       1  UNL1        0.1189
     33 H          63.4226   79.8959   14.7064 H       1  UNL1        0.1189
@<TRIPOS>UNITY_ATOM_ATTR
7 1
charge 1
9 1
charge -1
@<TRIPOS>BOND
     1    19    20    1
     2    20    13    1
     3    13    14   ar
     4    14    15   ar
     5    15    16   ar
     6    16    17   ar
     7    17    18   ar
     8    18    12    1
     9    12    10    1
    10    10     1    1
    11     1     2   ar
    12     2     3   ar
    13     3     4   ar
    14     4     7    1
    15     7     8    2
    16     7     9    1
    17     4     5   ar
    18     5    21    1
    19    21    23    1
    20    23    24    1
    21    24    25    1
    22    25    26    1
    23    26    27    1
    24    27    30    1
    25    30    31    1
    26    27    28    1
    27    28    29    1
    28     5     6   ar
    29    18    13   ar
    30     6     1   ar
    31    29    24    1
    32    10    11    1
    33    21    22    1
    34    31    32    1
    35    31    33    1
@<TRIPOS>MOLECULE
*****
 33 35 0 0 0
SMALL
GASTEIGER

@<TRIPOS>ATOM
      1 C          63.3480   91.1363   11.0827 C.ar    1  UNL1        0.2187
      2 N          64.2699   92.0828   10.3726 N.ar    1  UNL1       -0.2057
      3 C          65.3950   92.7359   11.1195 C.ar    1  UNL1        0.1799
      4 C          65.5981   92.4425   12.5764 C.ar    1  UNL1        0.3398
      5 C          64.6762   91.4960   13.2865 C.ar    1  UNL1        0.2031
      6 N          63.5512   90.8429   12.5397 N.ar    1  UNL1       -0.1927
      7 N          66.7231   93.0956   13.3232 N.pl3   1  UNL1        0.0855
      8 O          66.4839   94.3724   14.0735 O.2     1  UNL1        0.0416
      9 O          68.0874   92.4721   13.3198 O.co2   1  UNL1       -0.5759
     10 N          62.2230   90.4832   10.3359 N.pl3   1  UNL1       -0.2990
     11 H          61.6091   91.0297    9.7942 H       1  UNL1        0.1500
     12 C          62.0334   88.9973   10.4146 C.3     1  UNL1        0.1170
     13 C          61.2140   86.8181    9.2614 C.ar    1  UNL1        0.0229
     14 C          60.3061   86.1254    8.2889 C.ar    1  UNL1        0.0059
     15 C          59.3096   86.9192    7.4971 C.ar    1  UNL1        0.0005
     16 C          59.2211   88.4056    7.6777 C.ar    1  UNL1       -0.0002
     17 C          60.1290   89.0983    8.6502 C.ar    1  UNL1       -0.0021
     18 C          61.1255   88.3045    9.4421 C.ar    1  UNL1        0.0031
     19 C          61.8579   85.5342   11.4263 C.3     1  UNL1        0.0741
     20 S          62.2105   86.0244   10.0532 S.3     1  UNL1       -0.1130
     21 N          64.8794   91.2026   14.7434 N.pl3   1  UNL1       -0.3131
     22 H          65.7303   91.4380   15.1789 H       1  UNL1        0.1484
     23 C          63.7860   90.5506   15.5367 C.3     1  UNL1        0.0883
     24 C          63.7444   89.0570   15.6700 C.3     1  UNL1        0.0196
     25 C          63.0616   88.4279   16.8481 C.3     1  UNL1        0.0017
     26 C          63.0200   86.9344   16.9813 C.3     1  UNL1        0.0014
     27 C          63.6614   86.0701   15.9365 C.3     1  UNL1        0.0155
     28 C          64.3442   86.6992   14.7585 C.3     1  UNL1        0.0014
     29 C          64.3858   88.1927   14.6252 C.3     1  UNL1        0.0017
     30 C          63.6198   84.5766   16.0698 C.3     1  UNL1        0.0651
     31 N          64.5869   83.7276   15.2990 N.3     1  UNL1       -0.3211
     32 H          64.3957   83.8153   14.3010 H       1  UNL1        0.1189
     33 H          64.4830   82.7528   15.5808 H       1  UNL1        0.1189
@<TRIPOS>UNITY_ATOM_ATTR
7 1
charge 1
9 1
charge -1
@<TRIPOS>BOND
     1    19    20    1
     2    20    13    1
     3    13    14   ar
     4    14    15   ar
     5    15    16   ar
     6    16    17   ar
     7    17    18   ar
     8    18    12    1
     9    12    10    1
    10    10     1    1
    11     1     2   ar
    12     2     3   ar
    13     3     4   ar
    14     4     7    1
    15     7     8    2
    16     7     9    1
    17     4     5   ar
    18     5    21    1
    19    21    23    1
    20    23    24    1
    21    24    25    1
    22    25    26    1
    23    26    27    1
    24    27    30    1
    25    30    31    1
    26    27    28    1
    27    28    29    1
    28     5     6   ar
    29    18    13   ar
    30     6     1   ar
    31    29    24    1
    32    10    11    1
    33    21    22    1
    34    31    32    1
    35    31    33    1
@<TRIPOS>MOLECULE
*****
 33 35 0 0 0
SMALL
GASTEIGER

@<TRIPOS>ATOM
      1 C          62.5596   89.8653   11.0823 C.ar    1  UNL1        0.2187
      2 N          63.3305   91.1451   10.9490 N.ar    1  UNL1       -0.2057
      3 C          64.2047   91.6148   12.0738 C.ar    1  UNL1        0.1799
      4 C          64.3081   90.8046   13.3319 C.ar    1  UNL1        0.3398
      5 C          63.5372   89.5248   13.4653 C.ar    1  UNL1        0.2031
      6 N          62.6630   89.0551   12.3406 N.ar    1  UNL1       -0.1927
      7 N          65.1823   91.2743   14.4567 N.pl3   1  UNL1        0.0855
      8 O          64.5694   91.6761   15.7655 O.2     1  UNL1        0.0416
      9 O          66.6694   91.3421   14.2727 O.co2   1  UNL1       -0.5759
     10 N          61.6854   89.3956    9.9576 N.pl3   1  UNL1       -0.2990
     11 H          61.5563   89.9639    9.1641 H       1  UNL1        0.1500
     12 C          61.0078   88.0600   10.0418 C.3     1  UNL1        0.1170
     13 C          60.4555   86.5771    7.9812 C.ar    1  UNL1        0.0229
     14 C          60.8360   85.4818    7.0296 C.ar    1  UNL1        0.0059
     15 C          62.1492   84.7742    7.1869 C.ar    1  UNL1        0.0005
     16 C          63.0820   85.1618    8.2958 C.ar    1  UNL1       -0.0002
     17 C          62.7015   86.2571    9.2474 C.ar    1  UNL1       -0.0021
     18 C          61.3883   86.9647    9.0901 C.ar    1  UNL1        0.0031
     19 C          59.0936   88.6431    7.1896 C.3     1  UNL1        0.0741
     20 S          59.1423   87.2847    7.8239 S.3     1  UNL1       -0.1130
     21 N          63.6406   88.7146   14.7234 N.pl3   1  UNL1       -0.3131
     22 H          63.0999   88.9558   15.5100 H       1  UNL1        0.1484
     23 C          64.5677   87.5369   14.7831 C.3     1  UNL1        0.0883
     24 C          64.0543   86.1618   14.4740 C.3     1  UNL1        0.0196
     25 C          64.0848   85.0953   15.5283 C.3     1  UNL1        0.0017
     26 C          63.5714   83.7203   15.2192 C.3     1  UNL1        0.0014
     27 C          63.0275   83.4117   13.8557 C.3     1  UNL1        0.0155
     28 C          62.9969   84.4782   12.8014 C.3     1  UNL1        0.0014
     29 C          63.5103   85.8532   13.1106 C.3     1  UNL1        0.0017
     30 C          62.5140   82.0366   13.5466 C.3     1  UNL1        0.0651
     31 N          61.8267   81.2355   14.6123 N.3     1  UNL1       -0.3211
     32 H          62.4938   81.0070   15.3493 H       1  UNL1        0.1189
     33 H          61.4597   80.3745   14.2070 H       1  UNL1        0.1189
@<TRIPOS>UNITY_ATOM_ATTR
7 1
charge 1
9 1
charge -1
@<TRIPOS>BOND
     1    19    20    1
     2    20    13    1
     3    13    14   ar
     4    14    15   ar
     5    15    16   ar
     6    16    17   ar
     7    17    18   ar
     8    18    12    1
     9    12    10    1
    10    10     1    1
    11     1     2   ar
    12     2     3   ar
    13     3     4   ar
    14     4     7    1
    15     7     8    2
    16     7     9    1
    17     4     5   ar
    18     5    21    1
    19    21    23    1
    20    23    24    1
    21    24    25    1
    22    25    26    1
    23    26    27    1
    24    27    30    1
    25    30    31    1
    26    27    28    1
    27    28    29    1
    28     5     6   ar
    29    18    13   ar
    30     6     1   ar
    31    29    24    1
    32    10    11    1
    33    21    22    1
    34    31    32    1
    35    31    33    1
@<TRIPOS>MOLECULE
*****
 33 35 0 0 0
SMALL
GASTEIGER

@<TRIPOS>ATOM
      1 C          62.9043   86.3820   12.6652 C.ar    1  UNL1        0.2187
      2 N          61.8700   85.5875   11.9242 N.ar    1  UNL1       -0.2057
      3 C          61.1187   86.2114   10.7856 C.ar    1  UNL1        0.1799
      4 C          61.4016   87.6298   10.3881 C.ar    1  UNL1        0.3398
      5 C          62.4359   88.4243   11.1291 C.ar    1  UNL1        0.2031
      6 N          63.1872   87.8004   12.2676 N.ar    1  UNL1       -0.1927
      7 N          60.6503   88.2537    9.2496 N.pl3   1  UNL1        0.0855
      8 O          60.2247   89.6899    9.3294 O.2     1  UNL1        0.0416
      9 O          60.3246   87.4415    8.0313 O.co2   1  UNL1       -0.5759
     10 N          63.6556   85.7581   13.8037 N.pl3   1  UNL1       -0.2990
     11 H          63.6938   86.2127   14.6762 H       1  UNL1        0.1500
     12 C          64.3488   84.4416   13.6130 C.3     1  UNL1        0.1170
     13 C          63.6227   82.3753   12.2155 C.ar    1  UNL1        0.0229
     14 C          62.8180   81.1168   12.0794 C.ar    1  UNL1        0.0059
     15 C          61.9346   80.6660   13.2048 C.ar    1  UNL1        0.0005
     16 C          61.8559   81.4738   14.4662 C.ar    1  UNL1       -0.0002
     17 C          62.6607   82.7323   14.6023 C.ar    1  UNL1       -0.0021
     18 C          63.5440   83.1830   13.4769 C.ar    1  UNL1        0.0031
     19 C          63.9055   83.4780    9.8801 C.3     1  UNL1        0.0741
     20 S          64.5061   82.8260   11.0901 S.3     1  UNL1       -0.1130
     21 N          62.7188   89.8427   10.7316 N.pl3   1  UNL1       -0.3131
     22 H          62.8639   90.0689    9.7845 H       1  UNL1        0.1484
     23 C          62.7807   90.9165   11.7772 C.3     1  UNL1        0.0883
     24 C          64.0902   91.2592   12.4237 C.3     1  UNL1        0.0196
     25 C          65.0639   92.1548   11.7168 C.3     1  UNL1        0.0017
     26 C          66.3733   92.4974   12.3633 C.3     1  UNL1        0.0014
     27 C          66.7089   91.9446   13.7167 C.3     1  UNL1        0.0155
     28 C          65.7351   91.0491   14.4236 C.3     1  UNL1        0.0014
     29 C          64.4257   90.7064   13.7771 C.3     1  UNL1        0.0017
     30 C          68.0184   92.2873   14.3633 C.3     1  UNL1        0.0651
     31 N          69.3059   91.9891   13.6538 N.3     1  UNL1       -0.3211
     32 H          69.4188   90.9793   13.5643 H       1  UNL1        0.1189
     33 H          70.0854   92.3724   14.1884 H       1  UNL1        0.1189
@<TRIPOS>UNITY_ATOM_ATTR
7 1
charge 1
9 1
charge -1
@<TRIPOS>BOND
     1    19    20    1
     2    20    13    1
     3    13    14   ar
     4    14    15   ar
     5    15    16   ar
     6    16    17   ar
     7    17    18   ar
     8    18    12    1
     9    12    10    1
    10    10     1    1
    11     1     2   ar
    12     2     3   ar
    13     3     4   ar
    14     4     7    1
    15     7     8    2
    16     7     9    1
    17     4     5   ar
    18     5    21    1
    19    21    23    1
    20    23    24    1
    21    24    25    1
    22    25    26    1
    23    26    27    1
    24    27    30    1
    25    30    31    1
    26    27    28    1
    27    28    29    1
    28     5     6   ar
    29    18    13   ar
    30     6     1   ar
    31    29    24    1
    32    10    11    1
    33    21    22    1
    34    31    32    1
    35    31    33    1
@<TRIPOS>MOLECULE
*****
 33 35 0 0 0
SMALL
GASTEIGER

@<TRIPOS>ATOM
      1 C          64.1919   87.0047   14.3221 C.ar    1  UNL1        0.2187
      2 N          64.5860   85.9011   15.2585 N.ar    1  UNL1       -0.2057
      3 C          64.1594   84.4908   14.9773 C.ar    1  UNL1        0.1799
      4 C          63.3388   84.1840   13.7597 C.ar    1  UNL1        0.3398
      5 C          62.9448   85.2876   12.8233 C.ar    1  UNL1        0.2031
      6 N          63.3713   86.6979   13.1044 N.ar    1  UNL1       -0.1927
      7 N          62.9123   82.7737   13.4786 N.pl3   1  UNL1        0.0855
      8 O          62.7869   82.2963   12.0621 O.2     1  UNL1        0.0416
      9 O          62.6111   81.8408   14.6139 O.co2   1  UNL1       -0.5759
     10 N          64.6185   88.4150   14.6032 N.pl3   1  UNL1       -0.2990
     11 H          65.5039   88.5926   14.9953 H       1  UNL1        0.1500
     12 C          63.6960   89.5547   14.2870 C.3     1  UNL1        0.1170
     13 C          64.9971   91.5308   13.2135 C.ar    1  UNL1        0.0229
     14 C          65.2747   92.4154   12.0344 C.ar    1  UNL1        0.0059
     15 C          64.5289   92.2084   10.7495 C.ar    1  UNL1        0.0005
     16 C          63.5055   91.1170   10.6437 C.ar    1  UNL1       -0.0002
     17 C          63.2278   90.2324   11.8229 C.ar    1  UNL1       -0.0021
     18 C          63.9736   90.4393   13.1078 C.ar    1  UNL1        0.0031
     19 C          67.2330   91.5707   14.5359 C.3     1  UNL1        0.0741
     20 S          65.7429   91.7377   14.4984 S.3     1  UNL1       -0.1130
     21 N          62.1242   84.9808   11.6057 N.pl3   1  UNL1       -0.3131
     22 H          61.3018   84.4460   11.6883 H       1  UNL1        0.1484
     23 C          62.5567   85.4889   10.2623 C.3     1  UNL1        0.0883
     24 C          61.6651   86.4136    9.4876 C.3     1  UNL1        0.0196
     25 C          60.8025   85.8748    8.3850 C.3     1  UNL1        0.0017
     26 C          59.9110   86.7994    7.6104 C.3     1  UNL1        0.0014
     27 C          59.8821   88.2629    7.9382 C.3     1  UNL1        0.0155
     28 C          60.7447   88.8017    9.0407 C.3     1  UNL1        0.0014
     29 C          61.6362   87.8770    9.8154 C.3     1  UNL1        0.0017
     30 C          58.9905   89.1876    7.1635 C.3     1  UNL1        0.0651
     31 N          59.5755   90.0983    6.1252 N.3     1  UNL1       -0.3211
     32 H          60.1812   90.7837    6.5765 H       1  UNL1        0.1189
     33 H          58.8233   90.5809    5.6335 H       1  UNL1        0.1189
@<TRIPOS>UNITY_ATOM_ATTR
7 1
charge 1
9 1
charge -1
@<TRIPOS>BOND
     1    19    20    1
     2    20    13    1
     3    13    14   ar
     4    14    15   ar
     5    15    16   ar
     6    16    17   ar
     7    17    18   ar
     8    18    12    1
     9    12    10    1
    10    10     1    1
    11     1     2   ar
    12     2     3   ar
    13     3     4   ar
    14     4     7    1
    15     7     8    2
    16     7     9    1
    17     4     5   ar
    18     5    21    1
    19    21    23    1
    20    23    24    1
    21    24    25    1
    22    25    26    1
    23    26    27    1
    24    27    30    1
    25    30    31    1
    26    27    28    1
    27    28    29    1
    28     5     6   ar
    29    18    13   ar
    30     6     1   ar
    31    29    24    1
    32    10    11    1
    33    21    22    1
    34    31    32    1
    35    31    33    1
@<TRIPOS>MOLECULE
*****
 33 35 0 0 0
SMALL
GASTEIGER

@<TRIPOS>ATOM
      1 C          62.1604   89.3904   11.3623 C.ar    1  UNL1        0.2187
      2 N          61.1147   90.3425   10.8623 N.ar    1  UNL1       -0.2057
      3 C          60.1982   89.9323    9.7479 C.ar    1  UNL1        0.1799
      4 C          60.3274   88.5700    9.1336 C.ar    1  UNL1        0.3398
      5 C          61.3731   87.6179    9.6336 C.ar    1  UNL1        0.2031
      6 N          62.2895   88.0280   10.7480 N.ar    1  UNL1       -0.1927
      7 N          59.4110   88.1599    8.0192 N.pl3   1  UNL1        0.0855
      8 O          58.6606   86.8638    8.1038 O.2     1  UNL1        0.0416
      9 O          59.2448   89.0458    6.8202 O.co2   1  UNL1       -0.5759
     10 N          63.0768   89.8005   12.4767 N.pl3   1  UNL1       -0.2990
     11 H          63.3700   89.1370   13.1424 H       1  UNL1        0.1500
     12 C          63.5467   91.2215   12.5769 C.3     1  UNL1        0.1170
     13 C          65.8793   92.3151   12.2407 C.ar    1  UNL1        0.0229
     14 C          67.2587   92.6149   12.7479 C.ar    1  UNL1        0.0059
     15 C          67.6849   92.1209   14.0986 C.ar    1  UNL1        0.0005
     16 C          66.7318   91.3271   14.9420 C.ar    1  UNL1       -0.0002
     17 C          65.3524   91.0273   14.4348 C.ar    1  UNL1       -0.0021
     18 C          64.9262   91.5213   13.0841 C.ar    1  UNL1        0.0031
     19 C          66.4373   93.5136   10.0041 C.3     1  UNL1        0.0741
     20 S          65.4531   92.8090   10.8900 S.3     1  UNL1       -0.1130
     21 N          61.5023   86.2556    9.0193 N.pl3   1  UNL1       -0.3131
     22 H          60.7315   85.8459    8.5639 H       1  UNL1        0.1484
     23 C          62.8057   85.5176    9.0987 C.3     1  UNL1        0.0883
     24 C          63.0413   84.5280   10.2011 C.3     1  UNL1        0.0196
     25 C          62.4244   84.7476   11.5506 C.3     1  UNL1        0.0017
     26 C          62.6600   83.7580   12.6529 C.3     1  UNL1        0.0014
     27 C          63.5126   82.5489   12.4058 C.3     1  UNL1        0.0155
     28 C          64.1296   82.3293   11.0563 C.3     1  UNL1        0.0014
     29 C          63.8939   83.3188    9.9540 C.3     1  UNL1        0.0017
     30 C          63.7482   81.5593   13.5082 C.3     1  UNL1        0.0651
     31 N          62.6849   81.3162   14.5378 N.3     1  UNL1       -0.3211
     32 H          62.5496   82.1611   15.0929 H       1  UNL1        0.1189
     33 H          62.9711   80.5506   15.1480 H       1  UNL1        0.1189
@<TRIPOS>UNITY_ATOM_ATTR
7 1
charge 1
9 1
charge -1
@<TRIPOS>BOND
     1    19    20    1
     2    20    13    1
     3    13    14   ar
     4    14    15   ar
     5    15    16   ar
     6    16    17   ar
     7    17    18   ar
     8    18    12    1
     9    12    10    1
    10    10     1    1
    11     1     2   ar
    12     2     3   ar
    13     3     4   ar
    14     4     7    1
    15     7     8    2
    16     7     9    1
    17     4     5   ar
    18     5    21    1
    19    21    23    1
    20    23    24    1
    21    24    25    1
    22    25    26    1
    23    26    27    1
    24    27    30    1
    25    30    31    1
    26    27    28    1
    27    28    29    1
    28     5     6   ar
    29    18    13   ar
    30     6     1   ar
    31    29    24    1
    32    10    11    1
    33    21    22    1
    34    31    32    1
    35    31    33    1
