@<TRIPOS>MOLECULE
*****
 56 59 0 0 0
SMALL
GASTEIGER

@<TRIPOS>ATOM
      1 C          62.1814   88.0089   10.9963 C.3     1  UNL1        0.0760
      2 C          60.4563   88.7690    9.2084 C.2     1  UNL1        0.2404
      3 O          59.9198   89.7948   10.1622 O.2     1  UNL1       -0.2733
      4 N          61.5872   87.8760    9.6255 N.am    1  UNL1       -0.3043
      5 H          61.9393   87.2027    8.9994 H       1  UNL1        0.1494
      6 C          59.8621   88.6361    7.8375 C.3     1  UNL1        0.1514
      7 N          60.1956   89.6410    6.7749 N.am    1  UNL1       -0.2824
      8 C          59.0962   90.3157    6.0093 C.2     1  UNL1        0.3046
      9 O          57.6634   89.9855    6.3063 O.2     1  UNL1       -0.2526
     10 N          59.4296   91.3205    4.9467 N.am    1  UNL1       -0.2567
     11 C          58.3303   91.9952    4.1811 C.3     1  UNL1        0.1168
     12 H          61.1360   89.8576    6.5800 H       1  UNL1        0.1514
     13 C          60.8624   91.6506    4.6498 C.3     1  UNL1        0.1413
     14 C          61.2230   92.3397    3.3671 C.ar    1  UNL1        0.0858
     15 C          60.2910   93.1334    2.5003 C.ar    1  UNL1        0.0530
     16 S          61.0709   93.6402    1.3236 S.2     1  UNL1       -0.0705
     17 C          62.4851   93.1597    1.4630 C.ar    1  UNL1        0.0875
     18 N          62.5790   92.3559    2.7260 N.ar    1  UNL1       -0.2453
     19 C          63.6080   93.4347    0.5073 C.3     1  UNL1        0.0465
     20 C          65.0280   93.4028    0.9895 C.3     1  UNL1        0.0069
     21 C          63.3109   93.7416   -0.9306 C.3     1  UNL1        0.0069
     22 C          58.9345   87.4984    7.5293 C.3     1  UNL1        0.0502
     23 C          59.3212   86.0956    7.8934 C.3     1  UNL1        0.0916
     24 C          62.1236   84.1933    5.8252 C.3     1  UNL1        0.0946
     25 C          61.4694   85.0793    6.8435 C.2     1  UNL1        0.2230
     26 O          62.3092   85.8350    7.8302 O.2     1  UNL1       -0.2751
     27 N          59.9754   85.2096    6.8751 N.am    1  UNL1       -0.3043
     28 H          59.4242   84.7136    6.2275 H       1  UNL1        0.1494
     29 C          63.0078   89.2120   11.3421 C.3     1  UNL1        0.0216
     30 C          62.6698   90.0313   12.5522 C.3     1  UNL1        0.0217
     31 C          63.7431   90.8080   13.2558 C.3     1  UNL1        0.0792
     32 N          64.5763   91.7953   12.4937 N.am    1  UNL1       -0.2720
     33 C          65.9811   92.0870   12.9315 C.2     1  UNL1        0.4019
     34 O          66.5526   91.3914   14.1312 O.2     1  UNL1       -0.2264
     35 H          64.2013   92.2519   11.7062 H       1  UNL1        0.1527
     36 O          66.8144   93.0744   12.1694 O.3     1  UNL1       -0.4291
     37 C          66.2556   94.4248   11.8318 C.3     1  UNL1        0.2447
     38 C          66.6854   95.1215   10.5748 C.ar    1  UNL1        0.0714
     39 C          67.2086   94.4596    9.3346 C.ar    1  UNL1        0.1053
     40 N          67.5139   95.5314    8.3307 N.ar    1  UNL1       -0.2350
     41 C          67.1795   96.8558    8.9504 C.ar    1  UNL1        0.1343
     42 S          66.6674   96.6025   10.3373 S.2     1  UNL1       -0.0652
     43 C          63.9830   90.5973   14.7214 C.3     1  UNL1        0.0460
     44 C          63.8416   89.2270   15.3152 C.ar    1  UNL1       -0.0205
     45 C          63.0528   89.0339   16.5763 C.ar    1  UNL1       -0.0042
     46 C          62.9114   87.6637   17.1700 C.ar    1  UNL1       -0.0003
     47 C          63.5589   86.4866   16.5026 C.ar    1  UNL1       -0.0000
     48 C          64.3478   86.6798   15.2415 C.ar    1  UNL1       -0.0003
     49 C          64.4891   88.0500   14.6478 C.ar    1  UNL1       -0.0042
     50 C          61.9492   86.9386   12.0214 C.3     1  UNL1        0.0459
     51 C          62.5707   85.5848   11.8461 C.ar    1  UNL1       -0.0205
     52 C          62.8707   84.7362   13.0461 C.ar    1  UNL1       -0.0042
     53 C          63.4922   83.3823   12.8708 C.ar    1  UNL1       -0.0003
     54 C          63.8138   82.8770   11.4956 C.ar    1  UNL1       -0.0000
     55 C          63.5139   83.7256   10.2956 C.ar    1  UNL1       -0.0003
     56 C          62.8923   85.0795   10.4708 C.ar    1  UNL1       -0.0042
@<TRIPOS>BOND
     1    24    25    1
     2    25    26    2
     3    25    27   am
     4    27    23    1
     5    23    22    1
     6     6    22    1
     7     6     7    1
     8     7     8   am
     9     8     9    2
    10     8    10   am
    11    10    11    1
    12    10    13    1
    13    13    14    1
    14    14    15   ar
    15    15    16   ar
    16    16    17   ar
    17    17    19    1
    18    19    20    1
    19    19    21    1
    20    17    18   ar
    21     6     2    1
    22     2     3    2
    23     2     4   am
    24     4     1    1
    25     1    29    1
    26    29    30    1
    27    31    30    1
    28    31    43    1
    29    43    44    1
    30    44    45   ar
    31    45    46   ar
    32    46    47   ar
    33    47    48   ar
    34    48    49   ar
    35    31    32    1
    36    32    33   am
    37    33    34    2
    38    33    36    1
    39    36    37    1
    40    37    38    1
    41    38    39   ar
    42    39    40   ar
    43    40    41   ar
    44    41    42   ar
    45     1    50    1
    46    50    51    1
    47    51    52   ar
    48    52    53   ar
    49    53    54   ar
    50    54    55   ar
    51    55    56   ar
    52    18    14   ar
    53    49    44   ar
    54    42    38   ar
    55    56    51   ar
    56    27    28    1
    57     7    12    1
    58     4     5    1
    59    32    35    1
@<TRIPOS>MOLECULE
*****
 56 59 0 0 0
SMALL
GASTEIGER

@<TRIPOS>ATOM
      1 C          62.5272   87.9762   11.7257 C.3     1  UNL1        0.0760
      2 C          63.0334   89.5622   13.7203 C.2     1  UNL1        0.2404
      3 O          61.6323   90.0936   13.6534 O.2     1  UNL1       -0.2733
      4 N          63.4809   88.5035   12.7565 N.am    1  UNL1       -0.3043
      5 H          64.4005   88.1547   12.8004 H       1  UNL1        0.1494
      6 C          63.9871   90.0895   14.7511 C.3     1  UNL1        0.1514
      7 N          65.2973   90.6838   14.3263 N.am    1  UNL1       -0.2824
      8 C          65.8763   91.8418   15.0837 C.2     1  UNL1        0.3046
      9 O          65.1452   92.4055   16.2660 O.2     1  UNL1       -0.2526
     10 N          67.1864   92.4360   14.6590 N.am    1  UNL1       -0.2567
     11 C          67.7655   93.5940   15.4165 C.3     1  UNL1        0.1168
     12 H          65.7771   90.3137   13.5503 H       1  UNL1        0.1514
     13 C          67.9175   91.8722   13.4768 C.3     1  UNL1        0.1413
     14 C          67.7217   92.4743   12.1169 C.ar    1  UNL1        0.0858
     15 C          68.1862   91.8868   10.8173 C.ar    1  UNL1        0.0530
     16 S          67.7785   92.8190    9.7152 S.2     1  UNL1       -0.0705
     17 C          67.0619   93.9827   10.3336 C.ar    1  UNL1        0.0875
     18 N          67.0268   93.7696   11.8180 N.ar    1  UNL1       -0.2453
     19 C          66.4823   95.1537    9.5970 C.3     1  UNL1        0.0465
     20 C          65.4175   95.9918   10.2401 C.3     1  UNL1        0.0069
     21 C          66.9675   95.4867    8.2172 C.3     1  UNL1        0.0069
     22 C          63.6307   90.0226   16.2065 C.3     1  UNL1        0.0502
     23 C          62.9883   88.7876   16.7654 C.3     1  UNL1        0.0916
     24 C          63.3878   84.8486   16.4923 C.3     1  UNL1        0.0946
     25 C          62.9835   86.2004   17.0017 C.2     1  UNL1        0.2230
     26 O          62.1703   86.3165   18.2568 O.2     1  UNL1       -0.2751
     27 N          63.3925   87.4359   16.2560 N.am    1  UNL1       -0.3043
     28 H          63.9263   87.3597   15.4323 H       1  UNL1        0.1494
     29 C          62.2275   88.7844   10.4981 C.3     1  UNL1        0.0216
     30 C          60.8051   89.0219   10.0854 C.3     1  UNL1        0.0217
     31 C          60.3358   88.5890    8.7280 C.3     1  UNL1        0.0792
     32 N          60.3390   89.5632    7.5874 N.am    1  UNL1       -0.2720
     33 C          59.1911   89.5918    6.6222 C.2     1  UNL1        0.4019
     34 O          58.0400   88.6462    6.7976 O.2     1  UNL1       -0.2264
     35 H          61.0945   90.1839    7.4723 H       1  UNL1        0.1527
     36 O          59.1944   90.5660    5.4817 O.3     1  UNL1       -0.4291
     37 C          60.4932   91.1032    4.9579 C.3     1  UNL1        0.2447
     38 C          60.5011   92.0229    3.7729 C.ar    1  UNL1        0.0714
     39 C          59.3300   92.8045    3.2556 C.ar    1  UNL1        0.1053
     40 N          59.7866   93.5871    2.0602 N.ar    1  UNL1       -0.2350
     41 C          61.2399   93.2893    1.8387 C.ar    1  UNL1        0.1343
     42 S          61.6815   92.3226    2.8972 S.2     1  UNL1       -0.0652
     43 C          59.8632   87.1821    8.5113 C.3     1  UNL1        0.0460
     44 C          60.7703   86.1774    7.8648 C.ar    1  UNL1       -0.0205
     45 C          62.1878   86.0354    8.3342 C.ar    1  UNL1       -0.0042
     46 C          63.0948   85.0307    7.6877 C.ar    1  UNL1       -0.0003
     47 C          62.5843   84.1681    6.5718 C.ar    1  UNL1       -0.0000
     48 C          61.1668   84.3102    6.1023 C.ar    1  UNL1       -0.0003
     49 C          60.2598   85.3148    6.7488 C.ar    1  UNL1       -0.0042
     50 C          61.8732   86.6406   11.9226 C.3     1  UNL1        0.0459
     51 C          62.7142   85.4049   12.0472 C.ar    1  UNL1       -0.0205
     52 C          63.6959   85.2762   13.1740 C.ar    1  UNL1       -0.0042
     53 C          64.5369   84.0404   13.2987 C.ar    1  UNL1       -0.0003
     54 C          64.3962   82.9333   12.2965 C.ar    1  UNL1       -0.0000
     55 C          63.4144   83.0618   11.1697 C.ar    1  UNL1       -0.0003
     56 C          62.5734   84.2976   11.0450 C.ar    1  UNL1       -0.0042
@<TRIPOS>BOND
     1    24    25    1
     2    25    26    2
     3    25    27   am
     4    27    23    1
     5    23    22    1
     6     6    22    1
     7     6     7    1
     8     7     8   am
     9     8     9    2
    10     8    10   am
    11    10    11    1
    12    10    13    1
    13    13    14    1
    14    14    15   ar
    15    15    16   ar
    16    16    17   ar
    17    17    19    1
    18    19    20    1
    19    19    21    1
    20    17    18   ar
    21     6     2    1
    22     2     3    2
    23     2     4   am
    24     4     1    1
    25     1    29    1
    26    29    30    1
    27    31    30    1
    28    31    43    1
    29    43    44    1
    30    44    45   ar
    31    45    46   ar
    32    46    47   ar
    33    47    48   ar
    34    48    49   ar
    35    31    32    1
    36    32    33   am
    37    33    34    2
    38    33    36    1
    39    36    37    1
    40    37    38    1
    41    38    39   ar
    42    39    40   ar
    43    40    41   ar
    44    41    42   ar
    45     1    50    1
    46    50    51    1
    47    51    52   ar
    48    52    53   ar
    49    53    54   ar
    50    54    55   ar
    51    55    56   ar
    52    18    14   ar
    53    49    44   ar
    54    42    38   ar
    55    56    51   ar
    56    27    28    1
    57     7    12    1
    58     4     5    1
    59    32    35    1
@<TRIPOS>MOLECULE
*****
 56 59 0 0 0
SMALL
GASTEIGER

@<TRIPOS>ATOM
      1 C          63.8581   89.6022   13.4156 C.3     1  UNL1        0.0760
      2 C          61.8951   88.6401   12.0117 C.2     1  UNL1        0.2404
      3 O          60.9283   89.4920   12.7796 O.2     1  UNL1       -0.2733
      4 N          63.3600   88.6952   12.3297 N.am    1  UNL1       -0.3043
      5 H          63.9945   88.1361   11.8257 H       1  UNL1        0.1494
      6 C          61.3969   87.7330   10.9258 C.3     1  UNL1        0.1514
      7 N          62.2493   86.5939   10.4504 N.am    1  UNL1       -0.2824
      8 C          62.0982   86.0777    9.0501 C.2     1  UNL1        0.3046
      9 O          61.0948   86.7007    8.1253 O.2     1  UNL1       -0.2526
     10 N          62.9504   84.9386    8.5746 N.am    1  UNL1       -0.2567
     11 C          62.7993   84.4225    7.1744 C.3     1  UNL1        0.1168
     12 H          62.9078   86.1850   11.0574 H       1  UNL1        0.1514
     13 C          63.9537   84.3157    9.4994 C.3     1  UNL1        0.1413
     14 C          63.5134   83.2937   10.5053 C.ar    1  UNL1        0.0858
     15 C          63.6286   81.8054   10.3584 C.ar    1  UNL1        0.0530
     16 S          63.0670   81.1725   11.5969 S.2     1  UNL1       -0.0705
     17 C          62.6046   82.2697   12.5093 C.ar    1  UNL1        0.0875
     18 N          62.8805   83.5807   11.8346 N.ar    1  UNL1       -0.2453
     19 C          61.9766   82.0879   13.8593 C.3     1  UNL1        0.0465
     20 C          62.3024   83.0393   14.9723 C.3     1  UNL1        0.0069
     21 C          61.0229   80.9546   14.0964 C.3     1  UNL1        0.0069
     22 C          60.0466   87.9651   10.3154 C.3     1  UNL1        0.0502
     23 C          59.6477   89.3437    9.8790 C.3     1  UNL1        0.0916
     24 C          59.6775   89.7194    5.9283 C.3     1  UNL1        0.0946
     25 C          59.3234   89.2361    7.3035 C.2     1  UNL1        0.2230
     26 O          58.2910   88.1621    7.4783 O.2     1  UNL1       -0.2751
     27 N          60.0017   89.8269    8.5039 N.am    1  UNL1       -0.3043
     28 H          60.6793   90.5318    8.3891 H       1  UNL1        0.1494
     29 C          63.5407   91.0676   13.3732 C.3     1  UNL1        0.0216
     30 C          63.8483   91.8663   12.1414 C.3     1  UNL1        0.0217
     31 C          65.2558   92.3045   11.8637 C.3     1  UNL1        0.0792
     32 N          65.5118   93.4905   10.9817 N.am    1  UNL1       -0.2720
     33 C          65.9954   94.7788   11.5789 C.2     1  UNL1        0.4019
     34 O          66.2229   94.8811   13.0580 O.2     1  UNL1       -0.2264
     35 H          65.3624   93.4234   10.0110 H       1  UNL1        0.1527
     36 O          66.2514   95.9648   10.6969 O.3     1  UNL1       -0.4291
     37 C          67.3058   95.8941    9.6324 C.3     1  UNL1        0.2447
     38 C          67.8853   94.5681    9.2376 C.ar    1  UNL1        0.0714
     39 C          67.9135   93.9958    7.8514 C.ar    1  UNL1        0.1053
     40 N          68.5840   92.6556    7.9168 N.ar    1  UNL1       -0.2350
     41 C          68.9703   92.3996    9.3434 C.ar    1  UNL1        0.1343
     42 S          68.5384   93.5816   10.1597 S.2     1  UNL1       -0.0652
     43 C          66.4071   91.5569   12.4681 C.3     1  UNL1        0.0460
     44 C          67.0059   92.0207   13.7629 C.ar    1  UNL1       -0.0205
     45 C          68.4868   92.2330   13.8709 C.ar    1  UNL1       -0.0042
     46 C          69.0855   92.6969   15.1656 C.ar    1  UNL1       -0.0003
     47 C          68.2032   92.9484   16.3523 C.ar    1  UNL1       -0.0000
     48 C          66.7223   92.7361   16.2443 C.ar    1  UNL1       -0.0003
     49 C          66.1236   92.2723   14.9496 C.ar    1  UNL1       -0.0042
     50 C          64.6737   89.0438   14.5440 C.3     1  UNL1        0.0459
     51 C          64.0629   88.0566   15.4939 C.ar    1  UNL1       -0.0205
     52 C          63.2374   88.5396   16.6493 C.ar    1  UNL1       -0.0042
     53 C          62.6266   87.5523   17.5993 C.ar    1  UNL1       -0.0003
     54 C          62.8414   86.0821   17.3938 C.ar    1  UNL1       -0.0000
     55 C          63.6671   85.5991   16.2383 C.ar    1  UNL1       -0.0003
     56 C          64.2778   86.5863   15.2883 C.ar    1  UNL1       -0.0042
@<TRIPOS>BOND
     1    24    25    1
     2    25    26    2
     3    25    27   am
     4    27    23    1
     5    23    22    1
     6     6    22    1
     7     6     7    1
     8     7     8   am
     9     8     9    2
    10     8    10   am
    11    10    11    1
    12    10    13    1
    13    13    14    1
    14    14    15   ar
    15    15    16   ar
    16    16    17   ar
    17    17    19    1
    18    19    20    1
    19    19    21    1
    20    17    18   ar
    21     6     2    1
    22     2     3    2
    23     2     4   am
    24     4     1    1
    25     1    29    1
    26    29    30    1
    27    31    30    1
    28    31    43    1
    29    43    44    1
    30    44    45   ar
    31    45    46   ar
    32    46    47   ar
    33    47    48   ar
    34    48    49   ar
    35    31    32    1
    36    32    33   am
    37    33    34    2
    38    33    36    1
    39    36    37    1
    40    37    38    1
    41    38    39   ar
    42    39    40   ar
    43    40    41   ar
    44    41    42   ar
    45     1    50    1
    46    50    51    1
    47    51    52   ar
    48    52    53   ar
    49    53    54   ar
    50    54    55   ar
    51    55    56   ar
    52    18    14   ar
    53    49    44   ar
    54    42    38   ar
    55    56    51   ar
    56    27    28    1
    57     7    12    1
    58     4     5    1
    59    32    35    1
@<TRIPOS>MOLECULE
*****
 56 59 0 0 0
SMALL
GASTEIGER

@<TRIPOS>ATOM
      1 C          63.0176   86.2428   12.3884 C.3     1  UNL1        0.0760
      2 C          64.2030   87.7037   14.1803 C.2     1  UNL1        0.2404
      3 O          65.0258   86.5217   14.5996 O.2     1  UNL1       -0.2733
      4 N          63.1989   87.5642   13.0746 N.am    1  UNL1       -0.3043
      5 H          62.6588   88.3400   12.7993 H       1  UNL1        0.1494
      6 C          64.3842   89.0251   14.8665 C.3     1  UNL1        0.1514
      7 N          65.4523   89.9708   14.4028 N.am    1  UNL1       -0.2824
      8 C          65.5695   91.3318   15.0223 C.2     1  UNL1        0.3046
      9 O          64.6186   91.7472   16.1055 O.2     1  UNL1       -0.2526
     10 N          66.6376   92.2775   14.5587 N.am    1  UNL1       -0.2567
     11 C          66.7548   93.6385   15.1782 C.3     1  UNL1        0.1168
     12 H          66.0764   89.6981   13.6919 H       1  UNL1        0.1514
     13 C          67.5884   91.8621   13.4755 C.3     1  UNL1        0.1413
     14 C          67.5053   92.4986   12.1198 C.ar    1  UNL1        0.0858
     15 C          68.0486   91.9285   10.8432 C.ar    1  UNL1        0.0530
     16 S          67.7434   92.8946    9.7371 S.2     1  UNL1       -0.0705
     17 C          67.0114   94.0619   10.3301 C.ar    1  UNL1        0.0875
     18 N          66.8642   93.8172   11.8027 N.ar    1  UNL1       -0.2453
     19 C          66.5139   95.2630    9.5819 C.3     1  UNL1        0.0465
     20 C          65.4693   96.1484   10.1942 C.3     1  UNL1        0.0069
     21 C          67.0610   95.5787    8.2214 C.3     1  UNL1        0.0069
     22 C          63.4974   89.4010   16.0164 C.3     1  UNL1        0.0502
     23 C          63.0438   88.3519   16.9878 C.3     1  UNL1        0.0916
     24 C          62.6641   84.4358   16.4679 C.3     1  UNL1        0.0946
     25 C          62.3127   85.8754   16.7005 C.2     1  UNL1        0.2230
     26 O          60.8787   86.2781   16.8781 O.2     1  UNL1       -0.2751
     27 N          63.3952   86.9123   16.7553 N.am    1  UNL1       -0.3043
     28 H          64.3364   86.6480   16.6387 H       1  UNL1        0.1494
     29 C          62.3362   86.1780   11.0536 C.3     1  UNL1        0.0216
     30 C          60.8896   86.5549   10.9311 C.3     1  UNL1        0.0217
     31 C          60.5058   87.9806   10.6657 C.3     1  UNL1        0.0792
     32 N          59.7884   88.3407    9.3986 N.am    1  UNL1       -0.2720
     33 C          60.1555   87.6647    8.1108 C.2     1  UNL1        0.4019
     34 O          61.2400   86.6287    8.0902 O.2     1  UNL1       -0.2264
     35 H          59.0766   89.0208    9.4121 H       1  UNL1        0.1527
     36 O          59.4381   88.0249    6.8437 O.3     1  UNL1       -0.4291
     37 C          58.5254   89.2147    6.8108 C.3     1  UNL1        0.2447
     38 C          58.7798   90.3286    5.8388 C.ar    1  UNL1        0.0714
     39 C          57.7385   91.2108    5.2165 C.ar    1  UNL1        0.1053
     40 N          58.4354   92.1832    4.3116 N.ar    1  UNL1       -0.2350
     41 C          59.9075   91.9019    4.3747 C.ar    1  UNL1        0.1343
     42 S          60.1203   90.7557    5.3186 S.2     1  UNL1       -0.0652
     43 C          60.8395   89.0460   11.6674 C.3     1  UNL1        0.0460
     44 C          61.9339   90.0305   11.3789 C.ar    1  UNL1       -0.0205
     45 C          62.3234   90.3246    9.9606 C.ar    1  UNL1       -0.0042
     46 C          63.4177   91.3091    9.6721 C.ar    1  UNL1       -0.0003
     47 C          64.1226   91.9993   10.8020 C.ar    1  UNL1       -0.0000
     48 C          63.7332   91.7052   12.2203 C.ar    1  UNL1       -0.0003
     49 C          62.6388   90.7208   12.5088 C.ar    1  UNL1       -0.0042
     50 C          63.5178   84.9861   13.0369 C.3     1  UNL1        0.0459
     51 C          63.4154   83.6764   12.3128 C.ar    1  UNL1       -0.0205
     52 C          64.1511   83.4739   11.0214 C.ar    1  UNL1       -0.0042
     53 C          64.0487   82.1643   10.2972 C.ar    1  UNL1       -0.0003
     54 C          63.2106   81.0572   10.8645 C.ar    1  UNL1       -0.0000
     55 C          62.4749   81.2596   12.1559 C.ar    1  UNL1       -0.0003
     56 C          62.5773   82.5693   12.8801 C.ar    1  UNL1       -0.0042
@<TRIPOS>BOND
     1    24    25    1
     2    25    26    2
     3    25    27   am
     4    27    23    1
     5    23    22    1
     6     6    22    1
     7     6     7    1
     8     7     8   am
     9     8     9    2
    10     8    10   am
    11    10    11    1
    12    10    13    1
    13    13    14    1
    14    14    15   ar
    15    15    16   ar
    16    16    17   ar
    17    17    19    1
    18    19    20    1
    19    19    21    1
    20    17    18   ar
    21     6     2    1
    22     2     3    2
    23     2     4   am
    24     4     1    1
    25     1    29    1
    26    29    30    1
    27    31    30    1
    28    31    43    1
    29    43    44    1
    30    44    45   ar
    31    45    46   ar
    32    46    47   ar
    33    47    48   ar
    34    48    49   ar
    35    31    32    1
    36    32    33   am
    37    33    34    2
    38    33    36    1
    39    36    37    1
    40    37    38    1
    41    38    39   ar
    42    39    40   ar
    43    40    41   ar
    44    41    42   ar
    45     1    50    1
    46    50    51    1
    47    51    52   ar
    48    52    53   ar
    49    53    54   ar
    50    54    55   ar
    51    55    56   ar
    52    18    14   ar
    53    49    44   ar
    54    42    38   ar
    55    56    51   ar
    56    27    28    1
    57     7    12    1
    58     4     5    1
    59    32    35    1
@<TRIPOS>MOLECULE
*****
 56 59 0 0 0
SMALL
GASTEIGER

@<TRIPOS>ATOM
      1 C          62.8338   86.9301   12.2213 C.3     1  UNL1        0.0760
      2 C          61.8550   89.1261   11.2365 C.2     1  UNL1        0.2404
      3 O          60.9618   89.2647   12.4335 O.2     1  UNL1       -0.2733
      4 N          62.7910   87.9587   11.1304 N.am    1  UNL1       -0.3043
      5 H          63.3773   87.8677   10.3447 H       1  UNL1        0.1494
      6 C          61.8122   90.1547   10.1456 C.3     1  UNL1        0.1514
      7 N          60.7719   90.0630    9.0688 N.am    1  UNL1       -0.2824
      8 C          60.4316   88.7323    8.4659 C.2     1  UNL1        0.3046
      9 O          61.1317   87.4932    8.9399 O.2     1  UNL1       -0.2526
     10 N          59.3914   88.6406    7.3892 N.am    1  UNL1       -0.2567
     11 C          59.0512   87.3099    6.7863 C.3     1  UNL1        0.1168
     12 H          60.3124   90.8763    8.7577 H       1  UNL1        0.1514
     13 C          58.6914   89.8797    6.9152 C.3     1  UNL1        0.1413
     14 C          59.2700   90.6837    5.7888 C.ar    1  UNL1        0.0858
     15 C          58.5627   91.7596    5.0193 C.ar    1  UNL1        0.0530
     16 S          59.5131   92.2937    3.9890 S.2     1  UNL1       -0.0705
     17 C          60.8079   91.5480    4.1218 C.ar    1  UNL1        0.0875
     18 N          60.6576   90.5529    5.2341 N.ar    1  UNL1       -0.2453
     19 C          62.0370   91.7601    3.2886 C.3     1  UNL1        0.0465
     20 C          62.0871   92.8863    2.2992 C.3     1  UNL1        0.0069
     21 C          63.2159   90.8459    3.4449 C.3     1  UNL1        0.0069
     22 C          62.8096   91.2749   10.1314 C.3     1  UNL1        0.0502
     23 C          63.9747   91.2537   11.0760 C.3     1  UNL1        0.0916
     24 C          66.2085   94.4221   11.9253 C.3     1  UNL1        0.0946
     25 C          65.7389   93.1494   11.2850 C.2     1  UNL1        0.2230
     26 O          66.5637   92.5000   10.2137 O.2     1  UNL1       -0.2751
     27 N          64.4443   92.5263   11.7162 N.am    1  UNL1       -0.3043
     28 H          63.9030   92.9525   12.4193 H       1  UNL1        0.1494
     29 C          63.7010   87.1495   13.4254 C.3     1  UNL1        0.0216
     30 C          63.6656   88.4649   14.1454 C.3     1  UNL1        0.0217
     31 C          63.6270   88.4986   15.6445 C.3     1  UNL1        0.0792
     32 N          63.9772   89.7607   16.3756 N.am    1  UNL1       -0.2720
     33 C          63.8125   91.0895   15.6994 C.2     1  UNL1        0.4019
     34 O          63.2976   91.1562   14.2921 O.2     1  UNL1       -0.2264
     35 H          64.3151   89.7170   17.2993 H       1  UNL1        0.1527
     36 O          64.1626   92.3516   16.4304 O.3     1  UNL1       -0.4291
     37 C          65.5831   92.6153   16.8336 C.3     1  UNL1        0.2447
     38 C          66.6765   92.5599   15.8081 C.ar    1  UNL1        0.0714
     39 C          67.8729   93.4624   15.7452 C.ar    1  UNL1        0.1053
     40 N          68.7012   93.0525   14.5637 N.ar    1  UNL1       -0.2350
     41 C          68.0167   91.8966   13.8964 C.ar    1  UNL1        0.1343
     42 S          66.7654   91.5921   14.6655 S.2     1  UNL1       -0.0652
     43 C          63.2382   87.2703   16.4125 C.3     1  UNL1        0.0460
     44 C          63.5847   85.9115   15.8797 C.ar    1  UNL1       -0.0205
     45 C          62.5842   84.7969   15.9600 C.ar    1  UNL1       -0.0042
     46 C          62.9307   83.4382   15.4272 C.ar    1  UNL1       -0.0003
     47 C          64.2777   83.1943   14.8139 C.ar    1  UNL1       -0.0000
     48 C          65.2782   84.3089   14.7335 C.ar    1  UNL1       -0.0003
     49 C          64.9317   85.6676   15.2664 C.ar    1  UNL1       -0.0042
     50 C          62.0094   85.6820   12.1081 C.3     1  UNL1        0.0459
     51 C          62.6199   84.4274   11.5574 C.ar    1  UNL1       -0.0205
     52 C          62.3520   83.1091   12.2209 C.ar    1  UNL1       -0.0042
     53 C          62.9624   81.8545   11.6702 C.ar    1  UNL1       -0.0003
     54 C          63.8407   81.9181   10.4559 C.ar    1  UNL1       -0.0000
     55 C          64.1086   83.2365    9.7923 C.ar    1  UNL1       -0.0003
     56 C          63.4982   84.4911   10.3430 C.ar    1  UNL1       -0.0042
@<TRIPOS>BOND
     1    24    25    1
     2    25    26    2
     3    25    27   am
     4    27    23    1
     5    23    22    1
     6     6    22    1
     7     6     7    1
     8     7     8   am
     9     8     9    2
    10     8    10   am
    11    10    11    1
    12    10    13    1
    13    13    14    1
    14    14    15   ar
    15    15    16   ar
    16    16    17   ar
    17    17    19    1
    18    19    20    1
    19    19    21    1
    20    17    18   ar
    21     6     2    1
    22     2     3    2
    23     2     4   am
    24     4     1    1
    25     1    29    1
    26    29    30    1
    27    31    30    1
    28    31    43    1
    29    43    44    1
    30    44    45   ar
    31    45    46   ar
    32    46    47   ar
    33    47    48   ar
    34    48    49   ar
    35    31    32    1
    36    32    33   am
    37    33    34    2
    38    33    36    1
    39    36    37    1
    40    37    38    1
    41    38    39   ar
    42    39    40   ar
    43    40    41   ar
    44    41    42   ar
    45     1    50    1
    46    50    51    1
    47    51    52   ar
    48    52    53   ar
    49    53    54   ar
    50    54    55   ar
    51    55    56   ar
    52    18    14   ar
    53    49    44   ar
    54    42    38   ar
    55    56    51   ar
    56    27    28    1
    57     7    12    1
    58     4     5    1
    59    32    35    1
@<TRIPOS>MOLECULE
*****
 56 59 0 0 0
SMALL
GASTEIGER

@<TRIPOS>ATOM
      1 C          62.9448   86.2151   12.2078 C.3     1  UNL1        0.0760
      2 C          61.5729   88.3901   11.8365 C.2     1  UNL1        0.2404
      3 O          60.2998   87.6184   12.0200 O.2     1  UNL1       -0.2733
      4 N          62.8955   87.6884   11.9304 N.am    1  UNL1       -0.3043
      5 H          63.7311   88.1949   11.8100 H       1  UNL1        0.1494
      6 C          61.5236   89.8634   11.5592 C.3     1  UNL1        0.1514
      7 N          62.6471   90.7494   12.0098 N.am    1  UNL1       -0.2824
      8 C          63.5242   91.4225   10.9960 C.2     1  UNL1        0.3046
      9 O          63.2778   91.2096    9.5318 O.2     1  UNL1       -0.2526
     10 N          64.6476   92.3084   11.4465 N.am    1  UNL1       -0.2567
     11 C          65.5247   92.9815   10.4328 C.3     1  UNL1        0.1168
     12 H          62.8088   90.8891   12.9708 H       1  UNL1        0.1514
     13 C          64.8939   92.5213   12.9107 C.3     1  UNL1        0.1413
     14 C          66.2906   92.4544   13.4539 C.ar    1  UNL1        0.0858
     15 C          67.4520   91.7515   12.8159 C.ar    1  UNL1        0.0530
     16 S          68.6502   91.9414   13.6981 S.2     1  UNL1       -0.0705
     17 C          68.2293   92.7618   14.8813 C.ar    1  UNL1        0.0875
     18 N          66.7710   93.0788   14.7304 N.ar    1  UNL1       -0.2453
     19 C          69.1118   93.1898   16.0162 C.3     1  UNL1        0.0465
     20 C          69.7737   92.1589   16.8816 C.3     1  UNL1        0.0069
     21 C          69.3324   94.6489   16.2856 C.3     1  UNL1        0.0069
     22 C          60.3510   90.4507   10.8313 C.3     1  UNL1        0.0502
     23 C          59.7099   89.6927    9.7069 C.3     1  UNL1        0.0916
     24 C          59.5413   89.7790    5.7428 C.3     1  UNL1        0.0946
     25 C          59.3053   89.3566    7.1627 C.2     1  UNL1        0.2230
     26 O          58.4287   88.1757    7.4580 O.2     1  UNL1       -0.2751
     27 N          59.9458   90.1150    8.2871 N.am    1  UNL1       -0.3043
     28 H          60.5211   90.8901    8.0933 H       1  UNL1        0.1494
     29 C          63.9007   85.6760   13.2302 C.3     1  UNL1        0.0216
     30 C          63.9528   84.2023   13.5046 C.3     1  UNL1        0.0217
     31 C          63.2011   83.6291   14.6693 C.3     1  UNL1        0.0792
     32 N          63.2289   84.3272   15.9967 N.am    1  UNL1       -0.2720
     33 C          62.0785   85.1958   16.4116 C.2     1  UNL1        0.4019
     34 O          60.9003   85.3664   15.4991 O.2     1  UNL1       -0.2264
     35 H          64.0023   84.2152   16.5956 H       1  UNL1        0.1527
     36 O          62.1064   85.8938   17.7390 O.3     1  UNL1       -0.4291
     37 C          62.9851   87.0931   17.9374 C.3     1  UNL1        0.2447
     38 C          63.2541   88.0236   16.7920 C.ar    1  UNL1        0.0714
     39 C          63.9489   87.6674   15.5112 C.ar    1  UNL1        0.1053
     40 N          63.9998   88.8972   14.6539 N.ar    1  UNL1       -0.2350
     41 C          63.3364   90.0135   15.4049 C.ar    1  UNL1        0.1343
     42 S          62.8755   89.4735   16.7263 S.2     1  UNL1       -0.0652
     43 C          62.4214   82.3581   14.5066 C.3     1  UNL1        0.0460
     44 C          62.5821   81.5335   13.2638 C.ar    1  UNL1       -0.0205
     45 C          62.3843   80.0477   13.3188 C.ar    1  UNL1       -0.0042
     46 C          62.5450   79.2232   12.0761 C.ar    1  UNL1       -0.0003
     47 C          62.9035   79.8846   10.7784 C.ar    1  UNL1       -0.0000
     48 C          63.1014   81.3704   10.7234 C.ar    1  UNL1       -0.0003
     49 C          62.9407   82.1949   11.9661 C.ar    1  UNL1       -0.0042
     50 C          62.0380   85.2809   11.4626 C.3     1  UNL1        0.0459
     51 C          62.0116   85.2985    9.9630 C.ar    1  UNL1       -0.0205
     52 C          60.8477   85.9092    9.2404 C.ar    1  UNL1       -0.0042
     53 C          60.8213   85.9267    7.7408 C.ar    1  UNL1       -0.0003
     54 C          61.9589   85.3336    6.9636 C.ar    1  UNL1       -0.0000
     55 C          63.1230   84.7228    7.6862 C.ar    1  UNL1       -0.0003
     56 C          63.1493   84.7052    9.1858 C.ar    1  UNL1       -0.0042
@<TRIPOS>BOND
     1    24    25    1
     2    25    26    2
     3    25    27   am
     4    27    23    1
     5    23    22    1
     6     6    22    1
     7     6     7    1
     8     7     8   am
     9     8     9    2
    10     8    10   am
    11    10    11    1
    12    10    13    1
    13    13    14    1
    14    14    15   ar
    15    15    16   ar
    16    16    17   ar
    17    17    19    1
    18    19    20    1
    19    19    21    1
    20    17    18   ar
    21     6     2    1
    22     2     3    2
    23     2     4   am
    24     4     1    1
    25     1    29    1
    26    29    30    1
    27    31    30    1
    28    31    43    1
    29    43    44    1
    30    44    45   ar
    31    45    46   ar
    32    46    47   ar
    33    47    48   ar
    34    48    49   ar
    35    31    32    1
    36    32    33   am
    37    33    34    2
    38    33    36    1
    39    36    37    1
    40    37    38    1
    41    38    39   ar
    42    39    40   ar
    43    40    41   ar
    44    41    42   ar
    45     1    50    1
    46    50    51    1
    47    51    52   ar
    48    52    53   ar
    49    53    54   ar
    50    54    55   ar
    51    55    56   ar
    52    18    14   ar
    53    49    44   ar
    54    42    38   ar
    55    56    51   ar
    56    27    28    1
    57     7    12    1
    58     4     5    1
    59    32    35    1
@<TRIPOS>MOLECULE
*****
 56 59 0 0 0
SMALL
GASTEIGER

@<TRIPOS>ATOM
      1 C          63.5587   85.6582   13.1202 C.3     1  UNL1        0.0760
      2 C          63.6704   88.1585   13.8177 C.2     1  UNL1        0.2404
      3 O          62.6585   88.4978   12.7637 O.2     1  UNL1       -0.2733
      4 N          64.1205   86.7387   13.9960 N.am    1  UNL1       -0.3043
      5 H          64.7846   86.5160   14.6878 H       1  UNL1        0.1494
      6 C          64.2322   89.2389   14.6936 C.3     1  UNL1        0.1514
      7 N          65.3568   90.0982   14.1966 N.am    1  UNL1       -0.2824
      8 C          65.6332   91.4215   14.8466 C.2     1  UNL1        0.3046
      9 O          64.7850   91.8855   15.9934 O.2     1  UNL1       -0.2526
     10 N          66.7578   92.2807   14.3497 N.am    1  UNL1       -0.2567
     11 C          67.0342   93.6041   14.9996 C.3     1  UNL1        0.1168
     12 H          65.9135   89.7936   13.4439 H       1  UNL1        0.1514
     13 C          67.6060   91.8167   13.2029 C.3     1  UNL1        0.1413
     14 C          67.5444   92.5331   11.8864 C.ar    1  UNL1        0.0858
     15 C          68.1062   92.0387   10.5865 C.ar    1  UNL1        0.0530
     16 S          67.8191   93.0696    9.5354 S.2     1  UNL1       -0.0705
     17 C          67.0798   94.2013   10.1858 C.ar    1  UNL1        0.0875
     18 N          66.9100   93.8696   11.6388 N.ar    1  UNL1       -0.2453
     19 C          66.5954   95.4459    9.5031 C.3     1  UNL1        0.0465
     20 C          65.4361   96.2099   10.0708 C.3     1  UNL1        0.0069
     21 C          67.2703   95.9266    8.2527 C.3     1  UNL1        0.0069
     22 C          63.6694   89.4601   16.0662 C.3     1  UNL1        0.0502
     23 C          62.9254   88.3568   16.7586 C.3     1  UNL1        0.0916
     24 C          62.8205   84.3975   16.5072 C.3     1  UNL1        0.0946
     25 C          62.3721   85.8200   16.6673 C.2     1  UNL1        0.2230
     26 O          60.9220   86.1280   16.8962 O.2     1  UNL1       -0.2751
     27 N          63.3738   86.9344   16.5985 N.am    1  UNL1       -0.3043
     28 H          64.3255   86.7322   16.4483 H       1  UNL1        0.1494
     29 C          62.1165   85.6994   12.7099 C.3     1  UNL1        0.0216
     30 C          61.7339   85.4267   11.2855 C.3     1  UNL1        0.0217
     31 C          62.2454   86.3129   10.1886 C.3     1  UNL1        0.0792
     32 N          61.8927   87.7708   10.1764 N.am    1  UNL1       -0.2720
     33 C          60.5175   88.2063    9.7647 C.2     1  UNL1        0.4019
     34 O          59.4952   87.1840    9.3653 O.2     1  UNL1       -0.2264
     35 H          62.5637   88.4418   10.4386 H       1  UNL1        0.1527
     36 O          60.1648   89.6642    9.7525 O.3     1  UNL1       -0.4291
     37 C          60.5716   90.5439   10.8974 C.3     1  UNL1        0.2447
     38 C          61.9911   91.0143   11.0143 C.ar    1  UNL1        0.0714
     39 C          62.7104   91.3384   12.2901 C.ar    1  UNL1        0.1053
     40 N          64.1044   91.7676   11.9402 N.ar    1  UNL1       -0.2350
     41 C          64.2468   91.7087   10.4481 C.ar    1  UNL1        0.1343
     42 S          62.9407   91.2432    9.8759 S.2     1  UNL1       -0.0652
     43 C          63.1095   85.7412    9.1040 C.3     1  UNL1        0.0460
     44 C          62.4852   85.2233    7.8422 C.ar    1  UNL1       -0.0205
     45 C          60.9958   85.2667    7.6698 C.ar    1  UNL1       -0.0042
     46 C          60.3715   84.7488    6.4081 C.ar    1  UNL1       -0.0003
     47 C          61.2366   84.1876    5.3188 C.ar    1  UNL1       -0.0000
     48 C          62.7260   84.1443    5.4912 C.ar    1  UNL1       -0.0003
     49 C          63.3503   84.6621    6.7529 C.ar    1  UNL1       -0.0042
     50 C          64.4392   84.5366   12.6546 C.3     1  UNL1        0.0459
     51 C          63.8738   83.1565   12.4938 C.ar    1  UNL1       -0.0205
     52 C          63.7245   82.5620   11.1249 C.ar    1  UNL1       -0.0042
     53 C          63.1591   81.1819   10.9642 C.ar    1  UNL1       -0.0003
     54 C          62.7431   80.3964   12.1724 C.ar    1  UNL1       -0.0000
     55 C          62.8924   80.9910   13.5415 C.ar    1  UNL1       -0.0003
     56 C          63.4578   82.3711   13.7022 C.ar    1  UNL1       -0.0042
@<TRIPOS>BOND
     1    24    25    1
     2    25    26    2
     3    25    27   am
     4    27    23    1
     5    23    22    1
     6     6    22    1
     7     6     7    1
     8     7     8   am
     9     8     9    2
    10     8    10   am
    11    10    11    1
    12    10    13    1
    13    13    14    1
    14    14    15   ar
    15    15    16   ar
    16    16    17   ar
    17    17    19    1
    18    19    20    1
    19    19    21    1
    20    17    18   ar
    21     6     2    1
    22     2     3    2
    23     2     4   am
    24     4     1    1
    25     1    29    1
    26    29    30    1
    27    31    30    1
    28    31    43    1
    29    43    44    1
    30    44    45   ar
    31    45    46   ar
    32    46    47   ar
    33    47    48   ar
    34    48    49   ar
    35    31    32    1
    36    32    33   am
    37    33    34    2
    38    33    36    1
    39    36    37    1
    40    37    38    1
    41    38    39   ar
    42    39    40   ar
    43    40    41   ar
    44    41    42   ar
    45     1    50    1
    46    50    51    1
    47    51    52   ar
    48    52    53   ar
    49    53    54   ar
    50    54    55   ar
    51    55    56   ar
    52    18    14   ar
    53    49    44   ar
    54    42    38   ar
    55    56    51   ar
    56    27    28    1
    57     7    12    1
    58     4     5    1
    59    32    35    1
@<TRIPOS>MOLECULE
*****
 56 59 0 0 0
SMALL
GASTEIGER

@<TRIPOS>ATOM
      1 C          63.5116   84.3992   11.4157 C.3     1  UNL1        0.0760
      2 C          64.2372   85.3988   13.7014 C.2     1  UNL1        0.2404
      3 O          65.3322   84.3783   13.8001 O.2     1  UNL1       -0.2733
      4 N          63.3269   85.4092   12.5091 N.am    1  UNL1       -0.3043
      5 H          62.6083   86.0790   12.4444 H       1  UNL1        0.1494
      6 C          64.0526   86.4088   14.7948 C.3     1  UNL1        0.1514
      7 N          64.4220   87.8437   14.5607 N.am    1  UNL1       -0.2824
      8 C          63.8249   88.5932   13.4067 C.2     1  UNL1        0.3046
      9 O          62.8583   87.9078   12.4869 O.2     1  UNL1       -0.2526
     10 N          64.1943   90.0279   13.1725 N.am    1  UNL1       -0.2567
     11 C          63.5972   90.7774   12.0185 C.3     1  UNL1        0.1168
     12 H          65.0564   88.2935   15.1644 H       1  UNL1        0.1514
     13 C          65.1609   90.7132   14.0923 C.3     1  UNL1        0.1413
     14 C          65.7012   92.0672   13.7389 C.ar    1  UNL1        0.0858
     15 C          66.4100   93.0045   14.6711 C.ar    1  UNL1        0.0530
     16 S          66.7744   94.2381   13.8995 S.2     1  UNL1       -0.0705
     17 C          66.2909   94.0632   12.4904 C.ar    1  UNL1        0.0875
     18 N          65.6277   92.7215   12.3911 N.ar    1  UNL1       -0.2453
     19 C          66.4438   95.0558   11.3762 C.3     1  UNL1        0.0465
     20 C          66.0472   96.4869   11.5870 C.3     1  UNL1        0.0069
     21 C          66.9934   94.6172   10.0512 C.3     1  UNL1        0.0069
     22 C          63.4984   85.9841   16.1224 C.3     1  UNL1        0.0502
     23 C          62.7985   86.9818   16.9969 C.3     1  UNL1        0.0916
     24 C          63.5375   90.8800   16.9096 C.3     1  UNL1        0.0946
     25 C          62.9001   89.5516   16.6285 C.2     1  UNL1        0.2230
     26 O          61.7269   89.4646   15.6979 O.2     1  UNL1       -0.2751
     27 N          63.4359   88.3102   17.2779 N.am    1  UNL1       -0.3043
     28 H          64.2059   88.3673   17.8887 H       1  UNL1        0.1494
     29 C          63.1836   84.7608    9.9974 C.3     1  UNL1        0.0216
     30 C          61.7533   84.9299    9.5782 C.3     1  UNL1        0.0217
     31 C          61.0982   86.2760    9.6729 C.3     1  UNL1        0.0792
     32 N          60.9990   87.1490    8.4571 N.am    1  UNL1       -0.2720
     33 C          59.6771   87.3344    7.7727 C.2     1  UNL1        0.4019
     34 O          58.4545   86.6468    8.3041 O.2     1  UNL1       -0.2264
     35 H          61.8014   87.6003    8.1084 H       1  UNL1        0.1527
     36 O          59.5779   88.2073    6.5570 O.3     1  UNL1       -0.4291
     37 C          58.9611   89.5707    6.6609 C.3     1  UNL1        0.2447
     38 C          59.2356   90.6005    5.6054 C.ar    1  UNL1        0.0714
     39 C          60.5756   90.9181    5.0108 C.ar    1  UNL1        0.1053
     40 N          60.3865   92.0075    3.9971 N.ar    1  UNL1       -0.2350
     41 C          58.9296   92.3631    3.9652 C.ar    1  UNL1        0.1343
     42 S          58.2183   91.4936    4.9592 S.2     1  UNL1       -0.0652
     43 C          60.5422   86.7490   10.9832 C.3     1  UNL1        0.0460
     44 C          60.1293   88.1815   11.1495 C.ar    1  UNL1       -0.0205
     45 C          60.7430   89.2439   10.2866 C.ar    1  UNL1       -0.0042
     46 C          60.3301   90.6763   10.4529 C.ar    1  UNL1       -0.0003
     47 C          59.3035   91.0463   11.4821 C.ar    1  UNL1       -0.0000
     48 C          58.6898   89.9839   12.3450 C.ar    1  UNL1       -0.0003
     49 C          59.1027   88.5515   12.1787 C.ar    1  UNL1       -0.0042
     50 C          64.0244   83.0274   11.7405 C.3     1  UNL1        0.0459
     51 C          63.1474   82.0516   12.4676 C.ar    1  UNL1       -0.0205
     52 C          63.1077   80.6148   12.0386 C.ar    1  UNL1       -0.0042
     53 C          62.2306   79.6390   12.7657 C.ar    1  UNL1       -0.0003
     54 C          61.3933   80.1000   13.9216 C.ar    1  UNL1       -0.0000
     55 C          61.4329   81.5368   14.3506 C.ar    1  UNL1       -0.0003
     56 C          62.3100   82.5127   13.6236 C.ar    1  UNL1       -0.0042
@<TRIPOS>BOND
     1    24    25    1
     2    25    26    2
     3    25    27   am
     4    27    23    1
     5    23    22    1
     6     6    22    1
     7     6     7    1
     8     7     8   am
     9     8     9    2
    10     8    10   am
    11    10    11    1
    12    10    13    1
    13    13    14    1
    14    14    15   ar
    15    15    16   ar
    16    16    17   ar
    17    17    19    1
    18    19    20    1
    19    19    21    1
    20    17    18   ar
    21     6     2    1
    22     2     3    2
    23     2     4   am
    24     4     1    1
    25     1    29    1
    26    29    30    1
    27    31    30    1
    28    31    43    1
    29    43    44    1
    30    44    45   ar
    31    45    46   ar
    32    46    47   ar
    33    47    48   ar
    34    48    49   ar
    35    31    32    1
    36    32    33   am
    37    33    34    2
    38    33    36    1
    39    36    37    1
    40    37    38    1
    41    38    39   ar
    42    39    40   ar
    43    40    41   ar
    44    41    42   ar
    45     1    50    1
    46    50    51    1
    47    51    52   ar
    48    52    53   ar
    49    53    54   ar
    50    54    55   ar
    51    55    56   ar
    52    18    14   ar
    53    49    44   ar
    54    42    38   ar
    55    56    51   ar
    56    27    28    1
    57     7    12    1
    58     4     5    1
    59    32    35    1
@<TRIPOS>MOLECULE
*****
 56 59 0 0 0
SMALL
GASTEIGER

@<TRIPOS>ATOM
      1 C          63.7424   84.2556   11.4298 C.3     1  UNL1        0.0760
      2 C          64.3127   85.4014   13.6908 C.2     1  UNL1        0.2404
      3 O          65.5357   84.5421   13.8177 O.2     1  UNL1       -0.2733
      4 N          63.4161   85.2581   12.4968 N.am    1  UNL1       -0.3043
      5 H          62.6134   85.8220   12.4135 H       1  UNL1        0.1494
      6 C          63.9864   86.4039   14.7578 C.3     1  UNL1        0.1514
      7 N          63.8847   87.8602   14.4128 N.am    1  UNL1       -0.2824
      8 C          63.7098   88.8781   15.5005 C.2     1  UNL1        0.3046
      9 O          63.6366   88.4398   16.9332 O.2     1  UNL1       -0.2526
     10 N          63.6082   90.3344   15.1556 N.am    1  UNL1       -0.2567
     11 C          63.4333   91.3523   16.2433 C.3     1  UNL1        0.1168
     12 H          63.9328   88.1478   13.4725 H       1  UNL1        0.1514
     13 C          63.6814   90.7726   13.7229 C.3     1  UNL1        0.1413
     14 C          64.9282   91.4224   13.2001 C.ar    1  UNL1        0.0858
     15 C          66.1898   91.6609   13.9756 C.ar    1  UNL1        0.0530
     16 S          67.1736   92.3337   13.0649 S.2     1  UNL1       -0.0705
     17 C          66.5200   92.5110   11.7264 C.ar    1  UNL1        0.0875
     18 N          65.1323   91.9478   11.8100 N.ar    1  UNL1       -0.2453
     19 C          67.1445   93.1409   10.5168 C.3     1  UNL1        0.0465
     20 C          66.8545   94.5744   10.1836 C.3     1  UNL1        0.0069
     21 C          68.0589   92.3374    9.6403 C.3     1  UNL1        0.0069
     22 C          63.7618   85.9501   16.1697 C.3     1  UNL1        0.0502
     23 C          62.4381   85.3684   16.5689 C.3     1  UNL1        0.0916
     24 C          61.4808   82.3495   14.1772 C.3     1  UNL1        0.0946
     25 C          62.2459   83.2051   15.1429 C.2     1  UNL1        0.2230
     26 O          63.5839   82.7532   15.6482 O.2     1  UNL1       -0.2751
     27 N          61.6730   84.5127   15.6033 N.am    1  UNL1       -0.3043
     28 H          60.7948   84.8094   15.2716 H       1  UNL1        0.1494
     29 C          63.3757   84.5336   10.0021 C.3     1  UNL1        0.0216
     30 C          61.9472   84.8047    9.6339 C.3     1  UNL1        0.0217
     31 C          61.4012   86.1990    9.7233 C.3     1  UNL1        0.0792
     32 N          61.2127   87.0120    8.4769 N.am    1  UNL1       -0.2720
     33 C          59.8299   87.3048    7.9745 C.2     1  UNL1        0.4019
     34 O          58.6358   86.7847    8.7185 O.2     1  UNL1       -0.2264
     35 H          61.9964   87.3533    7.9885 H       1  UNL1        0.1527
     36 O          59.6413   88.1178    6.7281 O.3     1  UNL1       -0.4291
     37 C          58.7674   89.3366    6.7527 C.3     1  UNL1        0.2447
     38 C          58.9786   90.4313    5.7491 C.ar    1  UNL1        0.0714
     39 C          57.9079   91.2855    5.1377 C.ar    1  UNL1        0.1053
     40 N          58.5651   92.2461    4.1915 N.ar    1  UNL1       -0.2350
     41 C          60.0420   91.9856    4.2181 C.ar    1  UNL1        0.1343
     42 S          60.2976   90.8639    5.1808 S.2     1  UNL1       -0.0652
     43 C          61.0439   86.7803   11.0591 C.3     1  UNL1        0.0460
     44 C          60.7685   88.2492   11.1884 C.ar    1  UNL1       -0.0205
     45 C          61.8078   89.2468   10.7708 C.ar    1  UNL1       -0.0042
     46 C          61.5324   90.7156   10.9001 C.ar    1  UNL1       -0.0003
     47 C          60.2175   91.1867   11.4471 C.ar    1  UNL1       -0.0000
     48 C          59.1782   90.1892   11.8648 C.ar    1  UNL1       -0.0003
     49 C          59.4536   88.7204   11.7354 C.ar    1  UNL1       -0.0042
     50 C          64.4354   82.9751   11.7905 C.3     1  UNL1        0.0459
     51 C          63.7764   81.6587   11.5024 C.ar    1  UNL1       -0.0205
     52 C          63.3085   80.7910   12.6329 C.ar    1  UNL1       -0.0042
     53 C          62.6495   79.4746   12.3448 C.ar    1  UNL1       -0.0003
     54 C          62.4585   79.0260   10.9263 C.ar    1  UNL1       -0.0000
     55 C          62.9264   79.8938    9.7958 C.ar    1  UNL1       -0.0003
     56 C          63.5854   81.2101   10.0838 C.ar    1  UNL1       -0.0042
@<TRIPOS>BOND
     1    24    25    1
     2    25    26    2
     3    25    27   am
     4    27    23    1
     5    23    22    1
     6     6    22    1
     7     6     7    1
     8     7     8   am
     9     8     9    2
    10     8    10   am
    11    10    11    1
    12    10    13    1
    13    13    14    1
    14    14    15   ar
    15    15    16   ar
    16    16    17   ar
    17    17    19    1
    18    19    20    1
    19    19    21    1
    20    17    18   ar
    21     6     2    1
    22     2     3    2
    23     2     4   am
    24     4     1    1
    25     1    29    1
    26    29    30    1
    27    31    30    1
    28    31    43    1
    29    43    44    1
    30    44    45   ar
    31    45    46   ar
    32    46    47   ar
    33    47    48   ar
    34    48    49   ar
    35    31    32    1
    36    32    33   am
    37    33    34    2
    38    33    36    1
    39    36    37    1
    40    37    38    1
    41    38    39   ar
    42    39    40   ar
    43    40    41   ar
    44    41    42   ar
    45     1    50    1
    46    50    51    1
    47    51    52   ar
    48    52    53   ar
    49    53    54   ar
    50    54    55   ar
    51    55    56   ar
    52    18    14   ar
    53    49    44   ar
    54    42    38   ar
    55    56    51   ar
    56    27    28    1
    57     7    12    1
    58     4     5    1
    59    32    35    1
