@<TRIPOS>MOLECULE
*****
 42 47 0 0 0
SMALL
GASTEIGER

@<TRIPOS>ATOM
      1 N          61.7326   86.2323   10.1020 N.ar    1  UNL1       -0.2823
      2 C          61.3989   84.9621    9.3774 C.ar    1  UNL1        0.1831
      3 N          60.6832   85.3257    8.1102 N.ar    1  UNL1       -0.2236
      4 C          60.5746   86.8206    8.0518 C.ar    1  UNL1        0.0991
      5 C          59.9690   87.7440    7.0366 C.ar    1  UNL1        0.0206
      6 C          60.0119   89.2277    7.2525 C.ar    1  UNL1        0.0017
      7 C          60.6605   89.7880    8.4835 C.ar    1  UNL1        0.0016
      8 C          61.2661   88.8647    9.4987 C.ar    1  UNL1        0.0191
      9 C          61.2232   87.3809    9.2828 C.ar    1  UNL1        0.0835
     10 C          59.4063   90.1512    6.2374 C.ar    1  UNL1        0.0044
     11 C          57.9177   90.3247    6.1751 C.ar    1  UNL1        0.0208
     12 C          57.3120   91.2481    5.1600 C.ar    1  UNL1        0.1003
     13 N          58.1950   91.9981    4.2071 N.ar    1  UNL1       -0.2292
     14 C          59.6836   91.8245    4.2693 C.ar    1  UNL1        0.1318
     15 C          60.2893   90.9011    5.2845 C.ar    1  UNL1        0.0343
     16 N          60.5666   92.5744    3.3165 N.pl3   1  UNL1       -0.2904
     17 C          60.0338   93.7689    2.5822 C.3     1  UNL1        0.1095
     18 C          60.9168   94.5189    1.6293 C.3     1  UNL1        0.0939
     19 N          62.3326   94.0742    1.4107 N.3     1  UNL1       -0.2686
     20 C          63.2156   94.8241    0.4579 C.3     1  UNL1        0.0897
     21 C          62.8654   92.8797    2.1451 C.3     1  UNL1        0.0939
     22 C          61.9824   92.1298    3.0979 C.3     1  UNL1        0.1095
     23 C          63.6277   87.2347   13.3377 C.ar    1  UNL1        0.1512
     24 C          62.9916   87.5934   12.0274 C.ar    1  UNL1        0.0619
     25 C          62.4497   86.3358   11.4154 C.ar    1  UNL1        0.0987
     26 S          62.7510   85.1997   12.3474 S.2     1  UNL1       -0.0618
     27 C          63.4790   85.7552   13.5353 C.ar    1  UNL1        0.1178
     28 C          63.9718   84.9693   14.7142 C.2     1  UNL1        0.2518
     29 N          64.2146   85.6564   16.0252 N.am    1  UNL1       -0.3248
     30 O          64.2218   83.4961   14.5818 O.2     1  UNL1       -0.2697
     31 H          64.0505   86.6232   16.1121 H       1  UNL1        0.1453
     32 H          64.5380   85.1405   16.7989 H       1  UNL1        0.1453
     33 O          64.2953   88.1880   14.2839 O.3     1  UNL1       -0.4740
     34 C          62.9818   90.0962   15.4601 C.3     1  UNL1        0.0523
     35 C          63.8569   89.6214   14.3381 C.3     1  UNL1        0.1891
     36 C          64.2934   90.5801   13.2702 C.ar    1  UNL1        0.0278
     37 C          63.5187   90.6800   11.9897 C.ar    1  UNL1        0.0000
     38 C          63.9553   91.6387   10.9218 C.ar    1  UNL1       -0.0002
     39 C          65.1666   92.4975   11.1346 C.ar    1  UNL1        0.0008
     40 C          65.9413   92.3976   12.4150 C.ar    1  UNL1        0.0112
     41 C          65.5047   91.4389   13.4830 C.ar    1  UNL1        0.0570
     42 CL         66.2794   91.3390   14.7635 Cl      1  UNL1       -0.0825
@<TRIPOS>BOND
     1    35    34    1
     2    35    33    1
     3    33    23    1
     4    23    24   ar
     5    24    25   ar
     6    25     1    1
     7     1     2   ar
     8     2     3   ar
     9     3     4   ar
    10     4     5   ar
    11     5     6   ar
    12     6    10    1
    13    10    11   ar
    14    11    12   ar
    15    12    13   ar
    16    13    14   ar
    17    14    16    1
    18    16    17    1
    19    17    18    1
    20    18    19    1
    21    19    20    1
    22    19    21    1
    23    21    22    1
    24    14    15   ar
    25     6     7   ar
    26     7     8   ar
    27     8     9   ar
    28    25    26   ar
    29    26    27   ar
    30    27    28    1
    31    28    29   am
    32    28    30    2
    33    35    36    1
    34    36    37   ar
    35    37    38   ar
    36    38    39   ar
    37    39    40   ar
    38    40    41   ar
    39    41    42    1
    40    27    23   ar
    41    41    36   ar
    42     9     1   ar
    43     9     4   ar
    44    15    10   ar
    45    22    16    1
    46    29    31    1
    47    29    32    1
@<TRIPOS>MOLECULE
*****
 42 47 0 0 0
SMALL
GASTEIGER

@<TRIPOS>ATOM
      1 N          62.0407   87.3805   10.7567 N.ar    1  UNL1       -0.2823
      2 C          62.4204   88.5691   11.5892 C.ar    1  UNL1        0.1831
      3 N          61.9312   89.8015   10.8878 N.ar    1  UNL1       -0.2236
      4 C          61.2492   89.3745    9.6219 C.ar    1  UNL1        0.0991
      5 C          60.5752   90.1549    8.5325 C.ar    1  UNL1        0.0206
      6 C          59.9690   89.4390    7.3621 C.ar    1  UNL1        0.0017
      7 C          60.0366   87.9427    7.2811 C.ar    1  UNL1        0.0016
      8 C          60.7105   87.1623    8.3705 C.ar    1  UNL1        0.0191
      9 C          61.3168   87.8782    9.5409 C.ar    1  UNL1        0.0835
     10 C          59.2950   90.2193    6.2726 C.ar    1  UNL1        0.0044
     11 C          57.7980   90.2995    6.2235 C.ar    1  UNL1        0.0208
     12 C          57.1240   91.0798    5.1341 C.ar    1  UNL1        0.1003
     13 N          57.9471   91.7800    4.0937 N.ar    1  UNL1       -0.2292
     14 C          59.4442   91.6999    4.1429 C.ar    1  UNL1        0.1318
     15 C          60.1181   90.9195    5.2323 C.ar    1  UNL1        0.0343
     16 N          60.2672   92.4000    3.1026 N.pl3   1  UNL1       -0.2904
     17 C          61.7631   92.2936    3.1331 C.3     1  UNL1        0.1095
     18 C          62.5863   92.9938    2.0928 C.3     1  UNL1        0.0939
     19 N          61.9135   93.8004    1.0220 N.3     1  UNL1       -0.2686
     20 C          62.7366   94.5006   -0.0183 C.3     1  UNL1        0.0897
     21 C          60.4176   93.9069    0.9915 C.3     1  UNL1        0.0939
     22 C          59.5945   93.2067    2.0318 C.3     1  UNL1        0.1095
     23 C          62.4841   83.8320   12.2658 C.ar    1  UNL1        0.1512
     24 C          62.0204   85.2542   12.3765 C.ar    1  UNL1        0.0619
     25 C          62.3334   85.9459   11.0829 C.ar    1  UNL1        0.0987
     26 S          62.9906   84.9512   10.1725 S.2     1  UNL1       -0.0618
     27 C          63.0837   83.6447   10.9036 C.ar    1  UNL1        0.1178
     28 C          63.6730   82.3740   10.3667 C.2     1  UNL1        0.2518
     29 N          63.0052   81.0605   10.6470 N.am    1  UNL1       -0.3248
     30 O          64.9302   82.4170    9.5496 O.2     1  UNL1       -0.2697
     31 H          62.1801   81.0323   11.1834 H       1  UNL1        0.1453
     32 H          63.3919   80.2265   10.2947 H       1  UNL1        0.1453
     33 O          62.3685   82.7815   13.3302 O.3     1  UNL1       -0.4740
     34 C          63.8939   81.7211   15.1464 C.3     1  UNL1        0.0523
     35 C          63.1593   82.9086   14.5984 C.3     1  UNL1        0.1891
     36 C          63.2155   84.2232   15.3187 C.ar    1  UNL1        0.0278
     37 C          62.1338   84.5931   16.2898 C.ar    1  UNL1        0.0000
     38 C          62.1900   85.9077   17.0101 C.ar    1  UNL1       -0.0002
     39 C          63.3279   86.8523   16.7592 C.ar    1  UNL1        0.0008
     40 C          64.4095   86.4824   15.7881 C.ar    1  UNL1        0.0112
     41 C          64.3533   85.1678   15.0677 C.ar    1  UNL1        0.0570
     42 CL         65.4349   84.7979   14.0966 Cl      1  UNL1       -0.0825
@<TRIPOS>BOND
     1    35    34    1
     2    35    33    1
     3    33    23    1
     4    23    24   ar
     5    24    25   ar
     6    25     1    1
     7     1     2   ar
     8     2     3   ar
     9     3     4   ar
    10     4     5   ar
    11     5     6   ar
    12     6    10    1
    13    10    11   ar
    14    11    12   ar
    15    12    13   ar
    16    13    14   ar
    17    14    16    1
    18    16    17    1
    19    17    18    1
    20    18    19    1
    21    19    20    1
    22    19    21    1
    23    21    22    1
    24    14    15   ar
    25     6     7   ar
    26     7     8   ar
    27     8     9   ar
    28    25    26   ar
    29    26    27   ar
    30    27    28    1
    31    28    29   am
    32    28    30    2
    33    35    36    1
    34    36    37   ar
    35    37    38   ar
    36    38    39   ar
    37    39    40   ar
    38    40    41   ar
    39    41    42    1
    40    27    23   ar
    41    41    36   ar
    42     9     1   ar
    43     9     4   ar
    44    15    10   ar
    45    22    16    1
    46    29    31    1
    47    29    32    1
@<TRIPOS>MOLECULE
*****
 42 47 0 0 0
SMALL
GASTEIGER

@<TRIPOS>ATOM
      1 N          61.6062   87.0980   10.2621 N.ar    1  UNL1       -0.2823
      2 C          61.2601   85.7416    9.7232 C.ar    1  UNL1        0.1831
      3 N          60.4925   85.9313    8.4485 N.ar    1  UNL1       -0.2236
      4 C          60.3641   87.4049    8.1996 C.ar    1  UNL1        0.0991
      5 C          59.7094   88.1834    7.0972 C.ar    1  UNL1        0.0206
      6 C          59.7430   89.6828    7.1157 C.ar    1  UNL1        0.0017
      7 C          60.4313   90.4039    8.2365 C.ar    1  UNL1        0.0016
      8 C          61.0860   89.6255    9.3390 C.ar    1  UNL1        0.0191
      9 C          61.0524   88.1260    9.3205 C.ar    1  UNL1        0.0835
     10 C          59.0882   90.4613    6.0132 C.ar    1  UNL1        0.0044
     11 C          57.5935   90.5761    5.9615 C.ar    1  UNL1        0.0208
     12 C          56.9388   91.3546    4.8592 C.ar    1  UNL1        0.1003
     13 N          57.7787   92.0183    3.8084 N.ar    1  UNL1       -0.2292
     14 C          59.2734   91.9036    3.8601 C.ar    1  UNL1        0.1318
     15 C          59.9282   91.1251    4.9626 C.ar    1  UNL1        0.0343
     16 N          60.1134   92.5673    2.8095 N.pl3   1  UNL1       -0.2904
     17 C          59.4580   93.2438    1.6422 C.3     1  UNL1        0.1095
     18 C          60.2979   93.9076    0.5915 C.3     1  UNL1        0.0939
     19 N          61.7933   93.8947    0.7081 N.3     1  UNL1       -0.2686
     20 C          62.6333   94.5584   -0.3425 C.3     1  UNL1        0.0897
     21 C          62.4488   93.2182    1.8755 C.3     1  UNL1        0.0939
     22 C          61.6088   92.5545    2.9262 C.3     1  UNL1        0.1095
     23 C          63.6613   87.0718   13.5547 C.ar    1  UNL1        0.1512
     24 C          63.0024   86.3516   12.4158 C.ar    1  UNL1        0.0619
     25 C          62.3716   87.3773   11.5215 C.ar    1  UNL1        0.0987
     26 S          62.6406   88.7316   12.1076 S.2     1  UNL1       -0.0618
     27 C          63.4376   88.5428   13.3642 C.ar    1  UNL1        0.1178
     28 C          63.9254   89.6335   14.2712 C.2     1  UNL1        0.2518
     29 N          65.1470   90.4232   13.9050 N.am    1  UNL1       -0.3248
     30 O          63.1916   89.9345   15.5443 O.2     1  UNL1       -0.2697
     31 H          65.6287   90.2256   13.0694 H       1  UNL1        0.1453
     32 H          65.4672   91.1390   14.5002 H       1  UNL1        0.1453
     33 O          64.4119   86.4333   14.6854 O.3     1  UNL1       -0.4740
     34 C          66.4843   84.8666   14.7143 C.3     1  UNL1        0.0523
     35 C          65.0119   85.0695   14.5119 C.3     1  UNL1        0.1891
     36 C          64.1395   83.9086   14.1361 C.ar    1  UNL1        0.0278
     37 C          64.4817   83.0693   12.9410 C.ar    1  UNL1        0.0000
     38 C          63.6093   81.9084   12.5651 C.ar    1  UNL1       -0.0002
     39 C          62.3946   81.5869   13.3844 C.ar    1  UNL1        0.0008
     40 C          62.0524   82.4262   14.5795 C.ar    1  UNL1        0.0112
     41 C          62.9248   83.5872   14.9554 C.ar    1  UNL1        0.0570
     42 CL         62.5826   84.4265   16.1504 Cl      1  UNL1       -0.0825
@<TRIPOS>BOND
     1    35    34    1
     2    35    33    1
     3    33    23    1
     4    23    24   ar
     5    24    25   ar
     6    25     1    1
     7     1     2   ar
     8     2     3   ar
     9     3     4   ar
    10     4     5   ar
    11     5     6   ar
    12     6    10    1
    13    10    11   ar
    14    11    12   ar
    15    12    13   ar
    16    13    14   ar
    17    14    16    1
    18    16    17    1
    19    17    18    1
    20    18    19    1
    21    19    20    1
    22    19    21    1
    23    21    22    1
    24    14    15   ar
    25     6     7   ar
    26     7     8   ar
    27     8     9   ar
    28    25    26   ar
    29    26    27   ar
    30    27    28    1
    31    28    29   am
    32    28    30    2
    33    35    36    1
    34    36    37   ar
    35    37    38   ar
    36    38    39   ar
    37    39    40   ar
    38    40    41   ar
    39    41    42    1
    40    27    23   ar
    41    41    36   ar
    42     9     1   ar
    43     9     4   ar
    44    15    10   ar
    45    22    16    1
    46    29    31    1
    47    29    32    1
@<TRIPOS>MOLECULE
*****
 42 47 0 0 0
SMALL
GASTEIGER

@<TRIPOS>ATOM
      1 N          58.8444   92.7970   -0.9164 N.ar    1  UNL1       -0.2823
      2 C          57.7673   91.8764   -0.4244 C.ar    1  UNL1        0.1831
      3 N          56.5375   92.1200   -1.2480 N.ar    1  UNL1       -0.2236
      4 C          56.8546   93.1912   -2.2490 C.ar    1  UNL1        0.0991
      5 C          56.0293   93.8396   -3.3206 C.ar    1  UNL1        0.0206
      6 C          56.6298   94.9065   -4.1873 C.ar    1  UNL1        0.0017
      7 C          58.0556   95.3249   -3.9824 C.ar    1  UNL1        0.0016
      8 C          58.8809   94.6765   -2.9108 C.ar    1  UNL1        0.0191
      9 C          58.2804   93.6096   -2.0441 C.ar    1  UNL1        0.0835
     10 C          55.8045   95.5550   -5.2590 C.ar    1  UNL1        0.0044
     11 C          56.4673   96.1009   -6.4888 C.ar    1  UNL1        0.0208
     12 C          55.6421   96.7494   -7.5604 C.ar    1  UNL1        0.1003
     13 N          54.1539   96.8519   -7.4023 N.ar    1  UNL1       -0.2292
     14 C          53.4911   96.3060   -6.1724 C.ar    1  UNL1        0.1318
     15 C          54.3164   95.6575   -5.1007 C.ar    1  UNL1        0.0343
     16 N          52.0030   96.4085   -6.0142 N.pl3   1  UNL1       -0.2904
     17 C          51.3948   96.4371   -4.6433 C.3     1  UNL1        0.1095
     18 C          49.9067   96.5396   -4.4850 C.3     1  UNL1        0.0939
     19 N          49.0268   96.6135   -5.6976 N.3     1  UNL1       -0.2686
     20 C          47.5387   96.7160   -5.5394 C.3     1  UNL1        0.0897
     21 C          49.6351   96.5848   -7.0685 C.3     1  UNL1        0.0939
     22 C          51.1232   96.4823   -7.2268 C.3     1  UNL1        0.1095
     23 C          62.6304   93.2787   -0.2090 C.ar    1  UNL1        0.1512
     24 C          61.4517   93.3446   -1.1344 C.ar    1  UNL1        0.0619
     25 C          60.2406   92.8890   -0.3758 C.ar    1  UNL1        0.0987
     26 S          60.6707   92.5414    1.0186 S.2     1  UNL1       -0.0618
     27 C          62.1476   92.7822    1.1217 C.ar    1  UNL1        0.1178
     28 C          62.9935   92.5648    2.3413 C.2     1  UNL1        0.2518
     29 N          64.4695   92.8260    2.2867 N.am    1  UNL1       -0.3248
     30 O          62.3631   92.0862    3.6155 O.2     1  UNL1       -0.2697
     31 H          64.8832   93.1401    1.4504 H       1  UNL1        0.1453
     32 H          65.0246   92.6833    3.0872 H       1  UNL1        0.1453
     33 O          64.0435   93.6448   -0.5537 O.3     1  UNL1       -0.4740
     34 C          65.1946   95.9461   -0.9126 C.3     1  UNL1        0.0523
     35 C          64.3192   94.8384   -1.4192 C.3     1  UNL1        0.1891
     36 C          63.7196   94.9243   -2.7915 C.ar    1  UNL1        0.0278
     37 C          64.1920   94.0014   -3.8755 C.ar    1  UNL1        0.0000
     38 C          63.5924   94.0873   -5.2477 C.ar    1  UNL1       -0.0002
     39 C          62.5203   95.0961   -5.5359 C.ar    1  UNL1        0.0008
     40 C          62.0479   96.0189   -4.4520 C.ar    1  UNL1        0.0112
     41 C          62.6475   95.9331   -3.0797 C.ar    1  UNL1        0.0570
     42 CL         62.1751   96.8559   -1.9957 Cl      1  UNL1       -0.0825
@<TRIPOS>BOND
     1    35    34    1
     2    35    33    1
     3    33    23    1
     4    23    24   ar
     5    24    25   ar
     6    25     1    1
     7     1     2   ar
     8     2     3   ar
     9     3     4   ar
    10     4     5   ar
    11     5     6   ar
    12     6    10    1
    13    10    11   ar
    14    11    12   ar
    15    12    13   ar
    16    13    14   ar
    17    14    16    1
    18    16    17    1
    19    17    18    1
    20    18    19    1
    21    19    20    1
    22    19    21    1
    23    21    22    1
    24    14    15   ar
    25     6     7   ar
    26     7     8   ar
    27     8     9   ar
    28    25    26   ar
    29    26    27   ar
    30    27    28    1
    31    28    29   am
    32    28    30    2
    33    35    36    1
    34    36    37   ar
    35    37    38   ar
    36    38    39   ar
    37    39    40   ar
    38    40    41   ar
    39    41    42    1
    40    27    23   ar
    41    41    36   ar
    42     9     1   ar
    43     9     4   ar
    44    15    10   ar
    45    22    16    1
    46    29    31    1
    47    29    32    1
