@<TRIPOS>MOLECULE
*****
 34 37 0 0 0
SMALL
GASTEIGER

@<TRIPOS>ATOM
      1 C          60.9047   88.8995    9.2055 C.3     1  UNL1        0.1537
      2 C          61.3476   90.0952    9.9954 C.3     1  UNL1        0.0505
      3 C          62.4730   89.6685   10.8905 C.3     1  UNL1        0.0938
      4 C          62.7258   88.2091   10.6538 C.3     1  UNL1        0.1136
      5 N          61.7565   87.7338    9.6124 N.am    1  UNL1       -0.2676
      6 C          61.6566   86.3377    9.0726 C.2     1  UNL1        0.2526
      7 O          60.6320   86.0094    8.0275 O.2     1  UNL1       -0.2698
      8 C          62.5813   85.2702    9.5779 C.ar    1  UNL1        0.0940
      9 C          63.4974   84.4283    8.7401 C.ar    1  UNL1        0.1840
     10 O          64.2345   83.4950    9.6542 O.2     1  UNL1       -0.4503
     11 C          63.7741   83.7602   11.0570 C.ar    1  UNL1        0.1456
     12 C          64.1531   83.1443   12.3711 C.ar    1  UNL1        0.0375
     13 C          63.5104   83.6257   13.6381 C.ar    1  UNL1        0.0031
     14 C          62.4887   84.7228   13.5909 C.ar    1  UNL1        0.0002
     15 C          62.1096   85.3387   12.2768 C.ar    1  UNL1        0.0033
     16 C          62.7523   84.8574   11.0098 C.ar    1  UNL1        0.0420
     17 N          59.8168   89.8443    7.0435 N.am    1  UNL1       -0.3030
     18 C          59.8035   88.8739    8.1873 C.2     1  UNL1        0.2406
     19 O          58.6889   87.8779    8.3130 O.2     1  UNL1       -0.2733
     20 H          60.5484   90.4980    6.9611 H       1  UNL1        0.1495
     21 C          58.3487   91.0711    5.2859 C.3     1  UNL1        0.0230
     22 C          58.7156   89.8187    6.0254 C.3     1  UNL1        0.0895
     23 N          63.2153   90.5470   11.8534 N.am    1  UNL1       -0.2995
     24 C          63.7969   89.9627   13.1066 C.2     1  UNL1        0.2633
     25 O          63.6361   88.5000   13.3969 O.2     1  UNL1       -0.2685
     26 H          63.3209   91.5071   11.6628 H       1  UNL1        0.1498
     27 C          64.5393   90.8414   14.0694 C.ar    1  UNL1        0.1323
     28 C          65.6911   91.7416   13.7335 C.ar    1  UNL1        0.0398
     29 C          66.1237   92.4306   14.9937 C.ar    1  UNL1        0.0802
     30 N          65.2393   91.9561   16.1085 N.ar    1  UNL1       -0.1735
     31 N          64.2601   90.9739   15.5372 N.ar    1  UNL1       -0.2447
     32 C          63.1896   90.2512   16.2999 C.3     1  UNL1        0.1539
     33 C          67.2441   93.4202   15.1174 C.3     1  UNL1        0.0476
     34 C          68.5509   93.0018   15.7233 C.3     1  UNL1        0.0068
@<TRIPOS>BOND
     1    21    22    1
     2    22    17    1
     3    17    18   am
     4    18    19    2
     5     1    18    1
     6     1     2    1
     7     2     3    1
     8     3    23    1
     9    23    24   am
    10    24    25    2
    11    24    27    1
    12    27    28   ar
    13    28    29   ar
    14    29    33    1
    15    33    34    1
    16    29    30   ar
    17    30    31   ar
    18    31    32    1
    19     3     4    1
    20     4     5    1
    21     5     6   am
    22     6     7    2
    23     6     8    1
    24     8     9   ar
    25     9    10   ar
    26    10    11   ar
    27    11    12   ar
    28    12    13   ar
    29    13    14   ar
    30    14    15   ar
    31    15    16   ar
    32     5     1    1
    33    16     8   ar
    34    31    27   ar
    35    16    11   ar
    36    17    20    1
    37    23    26    1
@<TRIPOS>MOLECULE
*****
 34 37 0 0 0
SMALL
GASTEIGER

@<TRIPOS>ATOM
      1 C          63.5085   84.1971   14.0269 C.3     1  UNL1        0.1537
      2 C          64.0604   85.2193   14.9759 C.3     1  UNL1        0.0505
      3 C          64.1282   86.5326   14.2544 C.3     1  UNL1        0.0938
      4 C          63.6182   86.3221   12.8596 C.3     1  UNL1        0.1136
      5 N          63.2352   84.8787   12.7190 N.am    1  UNL1       -0.2676
      6 C          62.6769   84.2306   11.4867 C.2     1  UNL1        0.2526
      7 O          62.3391   82.7693   11.4954 O.2     1  UNL1       -0.2698
      8 C          62.4565   85.0441   10.2458 C.ar    1  UNL1        0.0940
      9 C          63.0798   84.7930    8.9047 C.ar    1  UNL1        0.1840
     10 O          62.5826   85.8452    7.9583 O.2     1  UNL1       -0.4503
     11 C          61.6519   86.7464    8.7144 C.ar    1  UNL1        0.1456
     12 C          60.8654   87.9540    8.2982 C.ar    1  UNL1        0.0375
     13 C          60.0010   88.6664    9.2958 C.ar    1  UNL1        0.0031
     14 C          59.9231   88.1712   10.7096 C.ar    1  UNL1        0.0002
     15 C          60.7096   86.9637   11.1258 C.ar    1  UNL1        0.0033
     16 C          61.5740   86.2513   10.1282 C.ar    1  UNL1        0.0420
     17 N          61.9104   82.1511   14.1282 N.am    1  UNL1       -0.3030
     18 C          63.2715   82.7478   14.3322 C.2     1  UNL1        0.2406
     19 O          64.3955   81.8950   14.8415 O.2     1  UNL1       -0.2733
     20 H          61.1726   82.7108   13.7940 H       1  UNL1        0.1495
     21 C          62.0644   79.6517   13.4365 C.3     1  UNL1        0.0230
     22 C          61.6734   80.7018   14.4336 C.3     1  UNL1        0.0895
     23 N          64.6197   87.8288   14.8273 N.am    1  UNL1       -0.2995
     24 C          64.3456   89.1176   14.1102 C.2     1  UNL1        0.2633
     25 O          63.5800   89.1100   12.8204 O.2     1  UNL1       -0.2685
     26 H          65.1221   87.8338   15.6739 H       1  UNL1        0.1498
     27 C          64.8371   90.4138   14.6831 C.ar    1  UNL1        0.1323
     28 C          65.9887   91.2253   14.1679 C.ar    1  UNL1        0.0398
     29 C          66.1266   92.4391   15.0382 C.ar    1  UNL1        0.0802
     30 N          65.0602   92.3778   16.0914 N.ar    1  UNL1       -0.1735
     31 N          64.2633   91.1261   15.8719 N.ar    1  UNL1       -0.2447
     32 C          63.0973   90.6673   16.6965 C.3     1  UNL1        0.1539
     33 C          67.1509   93.5237   14.8827 C.3     1  UNL1        0.0476
     34 C          68.3861   93.5163   15.7337 C.3     1  UNL1        0.0068
@<TRIPOS>BOND
     1    21    22    1
     2    22    17    1
     3    17    18   am
     4    18    19    2
     5     1    18    1
     6     1     2    1
     7     2     3    1
     8     3    23    1
     9    23    24   am
    10    24    25    2
    11    24    27    1
    12    27    28   ar
    13    28    29   ar
    14    29    33    1
    15    33    34    1
    16    29    30   ar
    17    30    31   ar
    18    31    32    1
    19     3     4    1
    20     4     5    1
    21     5     6   am
    22     6     7    2
    23     6     8    1
    24     8     9   ar
    25     9    10   ar
    26    10    11   ar
    27    11    12   ar
    28    12    13   ar
    29    13    14   ar
    30    14    15   ar
    31    15    16   ar
    32     5     1    1
    33    16     8   ar
    34    31    27   ar
    35    16    11   ar
    36    17    20    1
    37    23    26    1
@<TRIPOS>MOLECULE
*****
 34 37 0 0 0
SMALL
GASTEIGER

@<TRIPOS>ATOM
      1 C          65.1308   91.8123   13.6264 C.3     1  UNL1        0.1537
      2 C          64.2015   90.7342   13.1529 C.3     1  UNL1        0.0505
      3 C          63.7955   91.0574   11.7456 C.3     1  UNL1        0.0938
      4 C          64.4737   92.3353   11.3493 C.3     1  UNL1        0.1136
      5 N          65.2990   92.8018   12.5117 N.am    1  UNL1       -0.2676
      6 C          66.1441   94.0405   12.5523 C.2     1  UNL1        0.2526
      7 O          66.9183   94.3798   13.7913 O.2     1  UNL1       -0.2698
      8 C          66.2150   94.9397   11.3538 C.ar    1  UNL1        0.0940
      9 C          65.6057   96.3056   11.2390 C.ar    1  UNL1        0.1840
     10 O          65.9218   96.8408    9.8739 O.2     1  UNL1       -0.4503
     11 C          66.7263   95.8058    9.1449 C.ar    1  UNL1        0.1456
     12 C          67.3173   95.7814    7.7665 C.ar    1  UNL1        0.0375
     13 C          68.0895   94.5821    7.3027 C.ar    1  UNL1        0.0031
     14 C          68.2708   93.4071    8.2173 C.ar    1  UNL1        0.0002
     15 C          67.6798   93.4314    9.5958 C.ar    1  UNL1        0.0033
     16 C          66.9075   94.6308   10.0596 C.ar    1  UNL1        0.0420
     17 N          67.2737   91.9019   15.0927 N.am    1  UNL1       -0.3030
     18 C          65.7781   91.8877   14.9774 C.2     1  UNL1        0.2406
     19 O          64.9300   91.9489   16.2131 O.2     1  UNL1       -0.2733
     20 H          67.8303   91.8618   14.2817 H       1  UNL1        0.1495
     21 C          69.2840   92.5864   16.5893 C.3     1  UNL1        0.0230
     22 C          67.9210   91.9773   16.4437 C.3     1  UNL1        0.0895
     23 N          62.8731   90.2454   10.8855 N.am    1  UNL1       -0.2995
     24 C          62.5975   88.8110   11.2273 C.2     1  UNL1        0.2633
     25 O          63.2442   88.1888   12.4292 O.2     1  UNL1       -0.2685
     26 H          62.4486   90.6537   10.0967 H       1  UNL1        0.1498
     27 C          61.6750   87.9990   10.3672 C.ar    1  UNL1        0.1323
     28 C          62.0807   87.1348    9.2102 C.ar    1  UNL1        0.0398
     29 C          60.8414   86.5104    8.6411 C.ar    1  UNL1        0.0802
     30 N          59.6696   86.9886    9.4464 N.ar    1  UNL1       -0.1735
     31 N          60.1849   87.9086   10.5132 N.ar    1  UNL1       -0.2447
     32 C          59.3556   88.6143   11.5448 C.3     1  UNL1        0.1539
     33 C          60.7838   85.5724    7.4720 C.3     1  UNL1        0.0476
     34 C          62.0233   84.8574    7.0223 C.3     1  UNL1        0.0068
@<TRIPOS>BOND
     1    21    22    1
     2    22    17    1
     3    17    18   am
     4    18    19    2
     5     1    18    1
     6     1     2    1
     7     2     3    1
     8     3    23    1
     9    23    24   am
    10    24    25    2
    11    24    27    1
    12    27    28   ar
    13    28    29   ar
    14    29    33    1
    15    33    34    1
    16    29    30   ar
    17    30    31   ar
    18    31    32    1
    19     3     4    1
    20     4     5    1
    21     5     6   am
    22     6     7    2
    23     6     8    1
    24     8     9   ar
    25     9    10   ar
    26    10    11   ar
    27    11    12   ar
    28    12    13   ar
    29    13    14   ar
    30    14    15   ar
    31    15    16   ar
    32     5     1    1
    33    16     8   ar
    34    31    27   ar
    35    16    11   ar
    36    17    20    1
    37    23    26    1
@<TRIPOS>MOLECULE
*****
 34 37 0 0 0
SMALL
GASTEIGER

@<TRIPOS>ATOM
      1 C          61.0371   88.3141    9.9890 C.3     1  UNL1        0.1537
      2 C          60.9908   86.8172    9.9040 C.3     1  UNL1        0.0505
      3 C          61.9856   86.2664   10.8822 C.3     1  UNL1        0.0938
      4 C          62.6468   87.4228   11.5717 C.3     1  UNL1        0.1136
      5 N          62.0606   88.6883   11.0197 N.am    1  UNL1       -0.2676
      6 C          62.4326   90.0833   11.4269 C.2     1  UNL1        0.2526
      7 O          61.7570   91.2578   10.7834 O.2     1  UNL1       -0.2698
      8 C          63.4802   90.3037   12.4777 C.ar    1  UNL1        0.0940
      9 C          63.6424   89.5112   13.7408 C.ar    1  UNL1        0.1840
     10 O          64.8119   90.0731   14.4935 O.2     1  UNL1       -0.4503
     11 C          65.3725   91.2128   13.6956 C.ar    1  UNL1        0.1456
     12 C          66.5260   92.1392   13.9425 C.ar    1  UNL1        0.0375
     13 C          66.8565   93.2082   12.9435 C.ar    1  UNL1        0.0031
     14 C          66.0334   93.3508   11.6976 C.ar    1  UNL1        0.0002
     15 C          64.8799   92.4244   11.4507 C.ar    1  UNL1        0.0033
     16 C          64.5494   91.3554   12.4497 C.ar    1  UNL1        0.0420
     17 N          60.0071   89.0369    7.7159 N.am    1  UNL1       -0.3030
     18 C          60.2059   89.2690    9.1845 C.2     1  UNL1        0.2406
     19 O          59.5735   90.4561    9.8486 O.2     1  UNL1       -0.2733
     20 H          60.4222   88.2578    7.2801 H       1  UNL1        0.1495
     21 C          59.6329   90.4191    5.5482 C.3     1  UNL1        0.0230
     22 C          59.1760   89.9918    6.9115 C.3     1  UNL1        0.0895
     23 N          62.2694   84.8141   11.1277 N.am    1  UNL1       -0.2995
     24 C          62.5053   84.3218   12.5249 C.2     1  UNL1        0.2633
     25 O          62.4573   85.2817   13.6764 O.2     1  UNL1       -0.2685
     26 H          62.3009   84.1841   10.3719 H       1  UNL1        0.1498
     27 C          62.7891   82.8694   12.7704 C.ar    1  UNL1        0.1323
     28 C          62.4177   81.7330   11.8645 C.ar    1  UNL1        0.0398
     29 C          62.8932   80.4599   12.4991 C.ar    1  UNL1        0.0802
     30 N          63.5586   80.8094   13.7973 N.ar    1  UNL1       -0.1735
     31 N          63.4942   82.2986   13.9649 N.ar    1  UNL1       -0.2447
     32 C          64.0393   83.0798   15.1236 C.3     1  UNL1        0.1539
     33 C          62.7318   79.0795   11.9348 C.3     1  UNL1        0.0476
     34 C          62.7587   78.8684   10.4499 C.3     1  UNL1        0.0068
@<TRIPOS>BOND
     1    21    22    1
     2    22    17    1
     3    17    18   am
     4    18    19    2
     5     1    18    1
     6     1     2    1
     7     2     3    1
     8     3    23    1
     9    23    24   am
    10    24    25    2
    11    24    27    1
    12    27    28   ar
    13    28    29   ar
    14    29    33    1
    15    33    34    1
    16    29    30   ar
    17    30    31   ar
    18    31    32    1
    19     3     4    1
    20     4     5    1
    21     5     6   am
    22     6     7    2
    23     6     8    1
    24     8     9   ar
    25     9    10   ar
    26    10    11   ar
    27    11    12   ar
    28    12    13   ar
    29    13    14   ar
    30    14    15   ar
    31    15    16   ar
    32     5     1    1
    33    16     8   ar
    34    31    27   ar
    35    16    11   ar
    36    17    20    1
    37    23    26    1
@<TRIPOS>MOLECULE
*****
 34 37 0 0 0
SMALL
GASTEIGER

@<TRIPOS>ATOM
      1 C          61.5394   89.5095   10.6430 C.3     1  UNL1        0.1537
      2 C          62.3668   90.6573   11.1409 C.3     1  UNL1        0.0505
      3 C          63.3833   90.1139   12.1007 C.3     1  UNL1        0.0938
      4 C          63.1842   88.6303   12.1961 C.3     1  UNL1        0.1136
      5 N          62.0446   88.2567   11.2951 N.am    1  UNL1       -0.2676
      6 C          61.5050   86.8731   11.0835 C.2     1  UNL1        0.2526
      7 O          60.3548   86.6520   10.1464 O.2     1  UNL1       -0.2698
      8 C          62.1155   85.7109   11.8089 C.ar    1  UNL1        0.0940
      9 C          62.0266   85.4462   13.2827 C.ar    1  UNL1        0.1840
     10 O          62.7784   84.1809   13.5726 O.2     1  UNL1       -0.4503
     11 C          63.3319   83.6636   12.2779 C.ar    1  UNL1        0.1456
     12 C          64.1560   82.4538   11.9508 C.ar    1  UNL1        0.0375
     13 C          64.5704   82.1895   10.5337 C.ar    1  UNL1        0.0031
     14 C          64.1608   83.1351    9.4437 C.ar    1  UNL1        0.0002
     15 C          63.3367   84.3449    9.7708 C.ar    1  UNL1        0.0033
     16 C          62.9222   84.6092   11.1879 C.ar    1  UNL1        0.0420
     17 N          60.4226   88.7631    8.4190 N.am    1  UNL1       -0.3030
     18 C          60.4059   89.5987    9.6647 C.2     1  UNL1        0.2406
     19 O          59.2555   90.5235    9.9320 O.2     1  UNL1       -0.2733
     20 H          61.1776   88.1561    8.2436 H       1  UNL1        0.1495
     21 C          59.4098   89.7310    6.2311 C.3     1  UNL1        0.0230
     22 C          59.2891   88.8523    7.4408 C.3     1  UNL1        0.0895
     23 N          64.4173   90.9138   12.8362 N.am    1  UNL1       -0.2995
     24 C          64.6357   90.6892   14.3032 C.2     1  UNL1        0.2633
     25 O          63.8200   89.6649   15.0346 O.2     1  UNL1       -0.2685
     26 H          64.9527   91.5862   12.3561 H       1  UNL1        0.1498
     27 C          65.6698   91.4892   15.0385 C.ar    1  UNL1        0.1323
     28 C          67.1227   91.5937   14.6804 C.ar    1  UNL1        0.0398
     29 C          67.7833   92.4941   15.6817 C.ar    1  UNL1        0.0802
     30 N          66.7387   92.9461   16.6588 N.ar    1  UNL1       -0.1735
     31 N          65.4326   92.3250   16.2612 N.ar    1  UNL1       -0.2447
     32 C          64.1196   92.5077   16.9632 C.3     1  UNL1        0.1539
     33 C          69.2338   92.8756   15.7024 C.3     1  UNL1        0.0476
     34 C          70.0746   92.6943   14.4735 C.3     1  UNL1        0.0068
@<TRIPOS>BOND
     1    21    22    1
     2    22    17    1
     3    17    18   am
     4    18    19    2
     5     1    18    1
     6     1     2    1
     7     2     3    1
     8     3    23    1
     9    23    24   am
    10    24    25    2
    11    24    27    1
    12    27    28   ar
    13    28    29   ar
    14    29    33    1
    15    33    34    1
    16    29    30   ar
    17    30    31   ar
    18    31    32    1
    19     3     4    1
    20     4     5    1
    21     5     6   am
    22     6     7    2
    23     6     8    1
    24     8     9   ar
    25     9    10   ar
    26    10    11   ar
    27    11    12   ar
    28    12    13   ar
    29    13    14   ar
    30    14    15   ar
    31    15    16   ar
    32     5     1    1
    33    16     8   ar
    34    31    27   ar
    35    16    11   ar
    36    17    20    1
    37    23    26    1
@<TRIPOS>MOLECULE
*****
 34 37 0 0 0
SMALL
GASTEIGER

@<TRIPOS>ATOM
      1 C          63.3560   90.7099   13.3895 C.3     1  UNL1        0.1537
      2 C          62.1563   90.4038   12.5427 C.3     1  UNL1        0.0505
      3 C          62.4786   90.7837   11.1279 C.3     1  UNL1        0.0938
      4 C          63.8773   91.3246   11.1003 C.3     1  UNL1        0.1136
      5 N          64.4196   91.2791   12.4980 N.am    1  UNL1       -0.2676
      6 C          65.7858   91.7244   12.9287 C.2     1  UNL1        0.2526
      7 O          66.1897   91.6181   14.3693 O.2     1  UNL1       -0.2698
      8 C          66.7479   92.2761   11.9187 C.ar    1  UNL1        0.0940
      9 C          68.0550   91.6593   11.5175 C.ar    1  UNL1        0.1840
     10 O          68.6866   92.5435   10.4834 O.2     1  UNL1       -0.4503
     11 C          67.7699   93.7067   10.2456 C.ar    1  UNL1        0.1456
     12 C          67.8714   94.8950    9.3359 C.ar    1  UNL1        0.0375
     13 C          66.7747   95.9180    9.3133 C.ar    1  UNL1        0.0031
     14 C          65.5765   95.7528   10.2003 C.ar    1  UNL1        0.0002
     15 C          65.4749   94.5645   11.1100 C.ar    1  UNL1        0.0033
     16 C          66.5717   93.5414   11.1327 C.ar    1  UNL1        0.0420
     17 N          63.2600   89.1150   15.4382 N.am    1  UNL1       -0.3030
     18 C          63.4717   90.4863   14.8682 C.2     1  UNL1        0.2406
     19 O          63.7992   91.6338   15.7770 O.2     1  UNL1       -0.2733
     20 H          63.0452   88.3618   14.8417 H       1  UNL1        0.1495
     21 C          62.8883   87.6081   17.5216 C.3     1  UNL1        0.0230
     22 C          63.3758   88.8913   16.9168 C.3     1  UNL1        0.0895
     23 N          61.5628   90.6467    9.9478 N.am    1  UNL1       -0.2995
     24 C          61.1486   89.2851    9.4739 C.2     1  UNL1        0.2633
     25 O          61.6503   88.0606   10.1800 O.2     1  UNL1       -0.2685
     26 H          61.2335   91.4505    9.4844 H       1  UNL1        0.1498
     27 C          60.2328   89.1482    8.2938 C.ar    1  UNL1        0.1323
     28 C          59.8055   90.2552    7.3762 C.ar    1  UNL1        0.0398
     29 C          58.8922   89.6713    6.3395 C.ar    1  UNL1        0.0802
     30 N          58.7550   88.2034    6.6164 N.ar    1  UNL1       -0.1735
     31 N          59.5836   87.8802    7.8242 N.ar    1  UNL1       -0.2447
     32 C          59.7361   86.5265    8.4522 C.3     1  UNL1        0.1539
     33 C          58.2319   90.4233    5.2221 C.3     1  UNL1        0.0476
     34 C          58.6876   91.8107    4.8797 C.3     1  UNL1        0.0068
@<TRIPOS>BOND
     1    21    22    1
     2    22    17    1
     3    17    18   am
     4    18    19    2
     5     1    18    1
     6     1     2    1
     7     2     3    1
     8     3    23    1
     9    23    24   am
    10    24    25    2
    11    24    27    1
    12    27    28   ar
    13    28    29   ar
    14    29    33    1
    15    33    34    1
    16    29    30   ar
    17    30    31   ar
    18    31    32    1
    19     3     4    1
    20     4     5    1
    21     5     6   am
    22     6     7    2
    23     6     8    1
    24     8     9   ar
    25     9    10   ar
    26    10    11   ar
    27    11    12   ar
    28    12    13   ar
    29    13    14   ar
    30    14    15   ar
    31    15    16   ar
    32     5     1    1
    33    16     8   ar
    34    31    27   ar
    35    16    11   ar
    36    17    20    1
    37    23    26    1
@<TRIPOS>MOLECULE
*****
 34 37 0 0 0
SMALL
GASTEIGER

@<TRIPOS>ATOM
      1 C          63.7060   85.5292   13.4213 C.3     1  UNL1        0.1537
      2 C          64.5531   86.3044   14.3866 C.3     1  UNL1        0.0505
      3 C          64.3216   87.7652   14.1369 C.3     1  UNL1        0.0938
      4 C          63.3315   87.8929   13.0174 C.3     1  UNL1        0.1136
      5 N          62.9511   86.5110   12.5751 N.am    1  UNL1       -0.2676
      6 C          61.9852   86.1707   11.4790 C.2     1  UNL1        0.2526
      7 O          61.7028   84.7354   11.1473 O.2     1  UNL1       -0.2698
      8 C          61.3018   87.2657   10.7148 C.ar    1  UNL1        0.0940
      9 C          61.1296   88.6842   11.1708 C.ar    1  UNL1        0.1840
     10 O          60.3921   89.4296   10.0982 O.2     1  UNL1       -0.4503
     11 C          60.1084   88.4716    8.9793 C.ar    1  UNL1        0.1456
     12 C          59.4108   88.6444    7.6627 C.ar    1  UNL1        0.0375
     13 C          59.2754   87.4797    6.7272 C.ar    1  UNL1        0.0031
     14 C          59.8377   86.1423    7.1083 C.ar    1  UNL1        0.0002
     15 C          60.5353   85.9696    8.4249 C.ar    1  UNL1        0.0033
     16 C          60.6707   87.1342    9.3604 C.ar    1  UNL1        0.0420
     17 N          62.5231   83.2929   14.0127 N.am    1  UNL1       -0.3030
     18 C          63.6277   84.0347   13.3201 C.2     1  UNL1        0.2406
     19 O          64.6539   83.2820   12.5262 O.2     1  UNL1       -0.2733
     20 H          61.8496   83.7870   14.5337 H       1  UNL1        0.1495
     21 C          61.1233   81.1048   14.0611 C.3     1  UNL1        0.0230
     22 C          62.4448   81.7984   13.9114 C.3     1  UNL1        0.0895
     23 N          64.9669   88.8992   14.8769 N.am    1  UNL1       -0.2995
     24 C          65.0492   90.2570   14.2447 C.2     1  UNL1        0.2633
     25 O          64.4862   90.4807   12.8725 O.2     1  UNL1       -0.2685
     26 H          65.3364   88.7523   15.7775 H       1  UNL1        0.1498
     27 C          65.6945   91.3910   14.9847 C.ar    1  UNL1        0.1323
     28 C          66.9928   92.0518   14.6273 C.ar    1  UNL1        0.0398
     29 C          67.2555   93.1324   15.6338 C.ar    1  UNL1        0.0802
     30 N          66.1194   93.1395   16.6134 N.ar    1  UNL1       -0.1735
     31 N          65.1548   92.0632   16.2122 N.ar    1  UNL1       -0.2447
     32 C          63.8750   91.7196   16.9151 C.3     1  UNL1        0.1539
     33 C          68.4452   94.0456   15.6568 C.3     1  UNL1        0.0476
     34 C          69.7632   93.5475   16.1714 C.3     1  UNL1        0.0068
@<TRIPOS>BOND
     1    21    22    1
     2    22    17    1
     3    17    18   am
     4    18    19    2
     5     1    18    1
     6     1     2    1
     7     2     3    1
     8     3    23    1
     9    23    24   am
    10    24    25    2
    11    24    27    1
    12    27    28   ar
    13    28    29   ar
    14    29    33    1
    15    33    34    1
    16    29    30   ar
    17    30    31   ar
    18    31    32    1
    19     3     4    1
    20     4     5    1
    21     5     6   am
    22     6     7    2
    23     6     8    1
    24     8     9   ar
    25     9    10   ar
    26    10    11   ar
    27    11    12   ar
    28    12    13   ar
    29    13    14   ar
    30    14    15   ar
    31    15    16   ar
    32     5     1    1
    33    16     8   ar
    34    31    27   ar
    35    16    11   ar
    36    17    20    1
    37    23    26    1
@<TRIPOS>MOLECULE
*****
 34 37 0 0 0
SMALL
GASTEIGER

@<TRIPOS>ATOM
      1 C          63.8271   90.4984   13.0800 C.3     1  UNL1        0.1537
      2 C          63.0080   89.4734   12.3529 C.3     1  UNL1        0.0505
      3 C          63.0498   89.7998   10.8895 C.3     1  UNL1        0.0938
      4 C          63.8947   91.0264   10.7120 C.3     1  UNL1        0.1136
      5 N          64.3751   91.4582   12.0658 N.am    1  UNL1       -0.2676
      6 C          65.2499   92.6420   12.3548 C.2     1  UNL1        0.2526
      7 O          65.6511   92.9511   13.7666 O.2     1  UNL1       -0.2698
      8 C          65.7235   93.5165   11.2318 C.ar    1  UNL1        0.0940
      9 C          65.1972   94.8799   10.8939 C.ar    1  UNL1        0.1840
     10 O          65.9550   95.3871    9.7029 O.2     1  UNL1       -0.4503
     11 C          66.9495   94.3371    9.3047 C.ar    1  UNL1        0.1456
     12 C          67.9669   94.2845    8.2037 C.ar    1  UNL1        0.0375
     13 C          68.8412   93.0757    8.0478 C.ar    1  UNL1        0.0031
     14 C          68.6981   91.9196    8.9927 C.ar    1  UNL1        0.0002
     15 C          67.6808   91.9722   10.0936 C.ar    1  UNL1        0.0033
     16 C          66.8065   93.1810   10.2496 C.ar    1  UNL1        0.0420
     17 N          63.6319   91.7618   15.3418 N.am    1  UNL1       -0.3030
     18 C          64.0577   90.5538   14.5611 C.2     1  UNL1        0.2406
     19 O          64.7142   89.4012   15.2615 O.2     1  UNL1       -0.2733
     20 H          63.2011   92.5183   14.8820 H       1  UNL1        0.1495
     21 C          65.1394   92.3907   17.3621 C.3     1  UNL1        0.0230
     22 C          63.8626   91.8172   16.8229 C.3     1  UNL1        0.0895
     23 N          62.3666   89.0340    9.7955 N.am    1  UNL1       -0.2995
     24 C          62.0938   87.5685    9.9634 C.2     1  UNL1        0.2633
     25 O          62.5042   86.8690   11.2251 O.2     1  UNL1       -0.2685
     26 H          62.0973   89.4932    8.9674 H       1  UNL1        0.1498
     27 C          61.4106   86.8028    8.8694 C.ar    1  UNL1        0.1323
     28 C          62.0298   85.7278    8.0261 C.ar    1  UNL1        0.0398
     29 C          60.9901   85.2383    7.0621 C.ar    1  UNL1        0.0802
     30 N          59.7282   86.0107    7.3097 N.ar    1  UNL1       -0.1735
     31 N          59.9881   86.9776    8.4266 N.ar    1  UNL1       -0.2447
     32 C          58.9992   87.9487    9.0000 C.3     1  UNL1        0.1539
     33 C          61.1789   84.1649    6.0316 C.3     1  UNL1        0.0476
     34 C          62.3711   84.1999    5.1220 C.3     1  UNL1        0.0068
@<TRIPOS>BOND
     1    21    22    1
     2    22    17    1
     3    17    18   am
     4    18    19    2
     5     1    18    1
     6     1     2    1
     7     2     3    1
     8     3    23    1
     9    23    24   am
    10    24    25    2
    11    24    27    1
    12    27    28   ar
    13    28    29   ar
    14    29    33    1
    15    33    34    1
    16    29    30   ar
    17    30    31   ar
    18    31    32    1
    19     3     4    1
    20     4     5    1
    21     5     6   am
    22     6     7    2
    23     6     8    1
    24     8     9   ar
    25     9    10   ar
    26    10    11   ar
    27    11    12   ar
    28    12    13   ar
    29    13    14   ar
    30    14    15   ar
    31    15    16   ar
    32     5     1    1
    33    16     8   ar
    34    31    27   ar
    35    16    11   ar
    36    17    20    1
    37    23    26    1
@<TRIPOS>MOLECULE
*****
 34 37 0 0 0
SMALL
GASTEIGER

@<TRIPOS>ATOM
      1 C          61.2979   88.7902   10.3202 C.3     1  UNL1        0.1537
      2 C          61.2166   87.4038   10.8871 C.3     1  UNL1        0.0505
      3 C          62.3578   87.2270   11.8444 C.3     1  UNL1        0.0938
      4 C          63.1443   88.5040   11.8692 C.3     1  UNL1        0.1136
      5 N          62.4892   89.4701   10.9272 N.am    1  UNL1       -0.2676
      6 C          62.9455   90.8704   10.6421 C.2     1  UNL1        0.2526
      7 O          62.1853   91.7236    9.6705 O.2     1  UNL1       -0.2698
      8 C          64.1618   91.4173   11.3287 C.ar    1  UNL1        0.0940
      9 C          65.3283   92.0815   10.6592 C.ar    1  UNL1        0.1840
     10 O          66.3126   92.4706   11.7221 O.2     1  UNL1       -0.4503
     11 C          65.7545   92.0470   13.0484 C.ar    1  UNL1        0.1456
     12 C          66.2850   92.1699   14.4460 C.ar    1  UNL1        0.0375
     13 C          65.4861   91.6418   15.6005 C.ar    1  UNL1        0.0031
     14 C          64.1568   90.9907   15.3574 C.ar    1  UNL1        0.0002
     15 C          63.6264   90.8678   13.9597 C.ar    1  UNL1        0.0033
     16 C          64.4252   91.3959   12.8052 C.ar    1  UNL1        0.0420
     17 N          60.1873   88.7587    7.9716 N.am    1  UNL1       -0.3030
     18 C          60.3536   89.3911    9.3217 C.2     1  UNL1        0.2406
     19 O          59.5755   90.6245    9.6731 O.2     1  UNL1       -0.2733
     20 H          60.6980   87.9493    7.7410 H       1  UNL1        0.1495
     21 C          59.7775   90.1625    5.8243 C.3     1  UNL1        0.0230
     22 C          59.2430   89.3597    6.9731 C.3     1  UNL1        0.0895
     23 N          62.6594   85.9902   12.6378 N.am    1  UNL1       -0.2995
     24 C          62.9239   84.6928   11.9327 C.2     1  UNL1        0.2633
     25 O          62.8867   84.6323   10.4345 O.2     1  UNL1       -0.2685
     26 H          62.6839   86.0299   13.6211 H       1  UNL1        0.1498
     27 C          63.2256   83.4560   12.7261 C.ar    1  UNL1        0.1323
     28 C          62.5564   82.1228   12.5694 C.ar    1  UNL1        0.0398
     29 C          63.1667   81.1783   13.5619 C.ar    1  UNL1        0.0802
     30 N          64.2131   81.9278   14.3323 N.ar    1  UNL1       -0.1735
     31 N          64.2495   83.3355   13.8157 N.ar    1  UNL1       -0.2447
     32 C          65.1514   84.4305   14.3031 C.3     1  UNL1        0.1539
     33 C          62.7958   79.7372   13.7511 C.3     1  UNL1        0.0476
     34 C          61.3533   79.3261   13.7378 C.3     1  UNL1        0.0068
@<TRIPOS>BOND
     1    21    22    1
     2    22    17    1
     3    17    18   am
     4    18    19    2
     5     1    18    1
     6     1     2    1
     7     2     3    1
     8     3    23    1
     9    23    24   am
    10    24    25    2
    11    24    27    1
    12    27    28   ar
    13    28    29   ar
    14    29    33    1
    15    33    34    1
    16    29    30   ar
    17    30    31   ar
    18    31    32    1
    19     3     4    1
    20     4     5    1
    21     5     6   am
    22     6     7    2
    23     6     8    1
    24     8     9   ar
    25     9    10   ar
    26    10    11   ar
    27    11    12   ar
    28    12    13   ar
    29    13    14   ar
    30    14    15   ar
    31    15    16   ar
    32     5     1    1
    33    16     8   ar
    34    31    27   ar
    35    16    11   ar
    36    17    20    1
    37    23    26    1
