@<TRIPOS>MOLECULE
*****
 37 40 0 0 0
SMALL
GASTEIGER

@<TRIPOS>ATOM
      1 C          63.5926   90.6489   14.3038 C.2     1  UNL1        0.0320
      2 C          63.6804   90.7869   15.7949 C.2     1  UNL1        0.0122
      3 C          64.7928   91.5831   16.4101 C.2     1  UNL1        0.0216
      4 C          65.8175   92.2412   15.5343 C.2     1  UNL1        0.1008
      5 N          67.0181   93.0825   15.8521 N.2     1  UNL1       -0.1483
      6 N          67.6723   93.4643   14.5574 N.2     1  UNL1       -0.1483
      7 C          66.8760   92.8590   13.4396 C.2     1  UNL1        0.1007
      8 C          65.7297   92.1031   14.0433 C.2     1  UNL1        0.0223
      9 C          64.6173   91.3070   13.4281 C.3     1  UNL1        0.0706
     10 C          67.1738   92.9871   11.9750 C.ar    1  UNL1        0.0205
     11 C          68.0260   91.9600   11.2903 C.ar    1  UNL1        0.0016
     12 C          68.3238   92.0882    9.8257 C.ar    1  UNL1        0.0014
     13 C          67.7694   93.2433    9.0459 C.ar    1  UNL1        0.0199
     14 C          66.9172   94.2704    9.7306 C.ar    1  UNL1        0.1217
     15 C          66.6195   94.1423   11.1951 C.ar    1  UNL1        0.0214
     16 S          66.3628   95.4257    8.9507 S.O2    1  UNL1        0.0572
     17 N          65.8084   96.5809    8.1710 N.3     1  UNL1       -0.2035
     18 O          65.4810   95.7848   10.1098 O.2     1  UNL1       -0.1532
     19 O          67.2447   95.0665    7.7917 O.2     1  UNL1       -0.1532
     20 H          65.1173   97.0730    8.7373 H       1  UNL1        0.1442
     21 H          65.3661   96.2352    7.3193 H       1  UNL1        0.1442
     22 C          62.1574   90.0156   12.2328 C.2     1  UNL1        0.2447
     23 O          62.9471   90.9747   11.3923 O.2     1  UNL1       -0.2730
     24 N          62.4802   89.8526   13.6885 N.am    1  UNL1       -0.2857
     25 H          61.9619   89.2231   14.2402 H       1  UNL1        0.1546
     26 C          61.0450   89.2194   11.6175 C.3     1  UNL1        0.1577
     27 C          60.9502   87.9759    9.3383 C.ar    1  UNL1       -0.0244
     28 C          61.2639   86.7709    8.5019 C.ar    1  UNL1       -0.0045
     29 C          61.9862   85.6044    9.1083 C.ar    1  UNL1       -0.0003
     30 C          62.3947   85.6430   10.5511 C.ar    1  UNL1       -0.0003
     31 C          62.0810   86.8480   11.3875 C.ar    1  UNL1       -0.0028
     32 C          61.3587   88.0144   10.7811 C.ar    1  UNL1       -0.0030
     33 C          59.5180   88.9852    7.4199 C.3     1  UNL1        0.0050
     34 C          60.2279   89.1423    8.7320 C.3     1  UNL1        0.0261
     35 N          59.6188   89.6282   11.8386 N.3     1  UNL1       -0.2605
     36 C          59.1570   90.9936   11.4235 C.3     1  UNL1        0.0903
     37 C          58.6544   88.6715   12.4748 C.3     1  UNL1        0.0903
@<TRIPOS>BOND
     1    33    34    1
     2    34    27    1
     3    27    28   ar
     4    28    29   ar
     5    29    30   ar
     6    30    31   ar
     7    31    32   ar
     8    32    26    1
     9    26    22    1
    10    22    23    2
    11    22    24   am
    12    24     1    1
    13     1     2    2
    14     2     3    1
    15     3     4    2
    16     4     5    1
    17     5     6    2
    18     6     7    1
    19     7    10    1
    20    10    11   ar
    21    11    12   ar
    22    12    13   ar
    23    13    14   ar
    24    14    16    1
    25    16    17    1
    26    16    18    2
    27    16    19    2
    28    14    15   ar
    29     7     8    2
    30     8     9    1
    31    26    35    1
    32    35    36    1
    33    35    37    1
    34    32    27   ar
    35     9     1    1
    36     8     4    1
    37    15    10   ar
    38    24    25    1
    39    17    20    1
    40    17    21    1
@<TRIPOS>MOLECULE
*****
 37 40 0 0 0
SMALL
GASTEIGER

@<TRIPOS>ATOM
      1 C          63.7973   89.2562   13.4919 C.2     1  UNL1        0.0320
      2 C          63.4279   89.3521   14.9426 C.2     1  UNL1        0.0122
      3 C          63.9507   90.4842   15.7763 C.2     1  UNL1        0.0216
      4 C          64.8429   91.5203   15.1594 C.2     1  UNL1        0.1008
      5 N          65.5057   92.7405   15.7268 N.2     1  UNL1       -0.1483
      6 N          66.2846   93.3987   14.6269 N.2     1  UNL1       -0.1483
      7 C          66.1033   92.5853   13.3796 C.2     1  UNL1        0.1007
      8 C          65.2122   91.4244   13.7088 C.2     1  UNL1        0.0223
      9 C          64.6894   90.2924   12.8751 C.3     1  UNL1        0.0706
     10 C          66.7070   92.8808   12.0387 C.ar    1  UNL1        0.0205
     11 C          67.7275   91.9499   11.4540 C.ar    1  UNL1        0.0016
     12 C          68.3312   92.2455   10.1130 C.ar    1  UNL1        0.0014
     13 C          67.9144   93.4720    9.3567 C.ar    1  UNL1        0.0199
     14 C          66.8939   94.4029    9.9414 C.ar    1  UNL1        0.1217
     15 C          66.2902   94.1073   11.2824 C.ar    1  UNL1        0.0214
     16 S          66.4771   95.6295    9.1851 S.O2    1  UNL1        0.0572
     17 N          66.0603   96.8559    8.4289 N.3     1  UNL1       -0.2035
     18 O          67.5802   95.3946    8.1963 O.2     1  UNL1       -0.1532
     19 O          65.3739   95.8643   10.1740 O.2     1  UNL1       -0.1532
     20 H          66.6731   96.9833    7.6235 H       1  UNL1        0.1442
     21 H          66.1269   97.6706    9.0390 H       1  UNL1        0.1442
     22 C          62.3651   88.4043   11.4986 C.2     1  UNL1        0.2447
     23 O          61.9784   89.8166   11.1729 O.2     1  UNL1       -0.2730
     24 N          63.2745   88.1242   12.6581 N.am    1  UNL1       -0.2857
     25 H          63.5283   87.1973   12.8719 H       1  UNL1        0.1546
     26 C          61.8423   87.2723   10.6648 C.3     1  UNL1        0.1577
     27 C          62.9664   85.1137    9.7557 C.ar    1  UNL1       -0.0244
     28 C          63.4742   83.7201    9.9800 C.ar    1  UNL1       -0.0045
     29 C          63.3656   83.0918   11.3377 C.ar    1  UNL1       -0.0003
     30 C          62.7493   83.8570   12.4712 C.ar    1  UNL1       -0.0003
     31 C          62.2415   85.2505   12.2468 C.ar    1  UNL1       -0.0028
     32 C          62.3501   85.8788   10.8891 C.ar    1  UNL1       -0.0030
     33 C          62.7037   84.9555    7.1758 C.3     1  UNL1        0.0050
     34 C          63.0749   85.7420    8.3980 C.3     1  UNL1        0.0261
     35 N          60.8118   87.5338    9.6067 N.3     1  UNL1       -0.2605
     36 C          59.9219   86.4220    9.1355 C.3     1  UNL1        0.0903
     37 C          60.6711   88.9071    9.0199 C.3     1  UNL1        0.0903
@<TRIPOS>BOND
     1    33    34    1
     2    34    27    1
     3    27    28   ar
     4    28    29   ar
     5    29    30   ar
     6    30    31   ar
     7    31    32   ar
     8    32    26    1
     9    26    22    1
    10    22    23    2
    11    22    24   am
    12    24     1    1
    13     1     2    2
    14     2     3    1
    15     3     4    2
    16     4     5    1
    17     5     6    2
    18     6     7    1
    19     7    10    1
    20    10    11   ar
    21    11    12   ar
    22    12    13   ar
    23    13    14   ar
    24    14    16    1
    25    16    17    1
    26    16    18    2
    27    16    19    2
    28    14    15   ar
    29     7     8    2
    30     8     9    1
    31    26    35    1
    32    35    36    1
    33    35    37    1
    34    32    27   ar
    35     9     1    1
    36     8     4    1
    37    15    10   ar
    38    24    25    1
    39    17    20    1
    40    17    21    1
@<TRIPOS>MOLECULE
*****
 37 40 0 0 0
SMALL
GASTEIGER

@<TRIPOS>ATOM
      1 C          63.8821   89.1422   13.7777 C.2     1  UNL1        0.0320
      2 C          63.5183   89.2926   15.2251 C.2     1  UNL1        0.0122
      3 C          63.9908   90.4890   15.9967 C.2     1  UNL1        0.0216
      4 C          64.8271   91.5349   15.3209 C.2     1  UNL1        0.1008
      5 N          65.4333   92.8127   15.8209 N.2     1  UNL1       -0.1483
      6 N          66.1717   93.4519   14.6825 N.2     1  UNL1       -0.1483
      7 C          66.0219   92.5692   13.4790 C.2     1  UNL1        0.1007
      8 C          65.1909   91.3845   13.8736 C.2     1  UNL1        0.0223
      9 C          64.7184   90.1881   13.1020 C.3     1  UNL1        0.0706
     10 C          66.6014   92.8261   12.1195 C.ar    1  UNL1        0.0205
     11 C          67.6520   91.9093   11.5665 C.ar    1  UNL1        0.0016
     12 C          68.2315   92.1662   10.2070 C.ar    1  UNL1        0.0014
     13 C          67.7605   93.3399    9.4005 C.ar    1  UNL1        0.0199
     14 C          66.7099   94.2568    9.9535 C.ar    1  UNL1        0.1217
     15 C          66.1304   93.9998   11.3130 C.ar    1  UNL1        0.0214
     16 S          66.2389   95.4306    9.1470 S.O2    1  UNL1        0.0572
     17 N          65.7678   96.6043    8.3406 N.3     1  UNL1       -0.2035
     18 O          65.3327   95.8387   10.2704 O.2     1  UNL1       -0.1532
     19 O          67.1451   95.0224    8.0236 O.2     1  UNL1       -0.1532
     20 H          65.0800   97.1320    8.8780 H       1  UNL1        0.1442
     21 H          65.3416   96.2731    7.4751 H       1  UNL1        0.1442
     22 C          63.6782   86.5644   13.5254 C.2     1  UNL1        0.2447
     23 O          64.4191   86.3794   14.8164 O.2     1  UNL1       -0.2730
     24 N          63.4097   87.9457   13.0061 N.am    1  UNL1       -0.2857
     25 H          62.9233   88.0671   12.1587 H       1  UNL1        0.1546
     26 C          63.2057   85.3680   12.7537 C.3     1  UNL1        0.1577
     27 C          63.1512   84.7775   10.2243 C.ar    1  UNL1       -0.0244
     28 C          62.5489   84.9537    8.8618 C.ar    1  UNL1       -0.0045
     29 C          61.3989   85.8967    8.6665 C.ar    1  UNL1       -0.0003
     30 C          60.8511   86.6634    9.8336 C.ar    1  UNL1       -0.0003
     31 C          61.4534   86.4872   11.1960 C.ar    1  UNL1       -0.0028
     32 C          62.6034   85.5442   11.3913 C.ar    1  UNL1       -0.0030
     33 C          64.0909   82.3559   10.2797 C.3     1  UNL1        0.0050
     34 C          64.3013   83.8345   10.4197 C.3     1  UNL1        0.0261
     35 N          63.3355   83.9953   13.3445 N.3     1  UNL1       -0.2605
     36 C          62.1374   83.0965   13.4237 C.3     1  UNL1        0.0903
     37 C          64.6637   83.5216   13.8562 C.3     1  UNL1        0.0903
@<TRIPOS>BOND
     1    33    34    1
     2    34    27    1
     3    27    28   ar
     4    28    29   ar
     5    29    30   ar
     6    30    31   ar
     7    31    32   ar
     8    32    26    1
     9    26    22    1
    10    22    23    2
    11    22    24   am
    12    24     1    1
    13     1     2    2
    14     2     3    1
    15     3     4    2
    16     4     5    1
    17     5     6    2
    18     6     7    1
    19     7    10    1
    20    10    11   ar
    21    11    12   ar
    22    12    13   ar
    23    13    14   ar
    24    14    16    1
    25    16    17    1
    26    16    18    2
    27    16    19    2
    28    14    15   ar
    29     7     8    2
    30     8     9    1
    31    26    35    1
    32    35    36    1
    33    35    37    1
    34    32    27   ar
    35     9     1    1
    36     8     4    1
    37    15    10   ar
    38    24    25    1
    39    17    20    1
    40    17    21    1
@<TRIPOS>MOLECULE
*****
 37 40 0 0 0
SMALL
GASTEIGER

@<TRIPOS>ATOM
      1 C          61.5981   86.0816   10.7841 C.2     1  UNL1        0.0320
      2 C          60.5813   85.7984    9.7183 C.2     1  UNL1        0.0122
      3 C          60.1012   86.9050    8.8268 C.2     1  UNL1        0.0216
      4 C          60.6380   88.2948    9.0010 C.2     1  UNL1        0.1008
      5 N          60.3548   89.5781    8.2776 N.2     1  UNL1       -0.1483
      6 N          61.1967   90.6544    8.8964 N.2     1  UNL1       -0.1483
      7 C          62.0001   90.0363   10.0021 C.2     1  UNL1        0.1007
      8 C          61.6548   88.5780   10.0667 C.2     1  UNL1        0.0223
      9 C          62.1348   87.4714   10.9582 C.3     1  UNL1        0.0706
     10 C          62.9773   90.7510   10.8877 C.ar    1  UNL1        0.0205
     11 C          63.9951   91.6758   10.2886 C.ar    1  UNL1        0.0016
     12 C          64.9723   92.3905   11.1742 C.ar    1  UNL1        0.0014
     13 C          64.9317   92.1804   12.6589 C.ar    1  UNL1        0.0199
     14 C          63.9139   91.2557   13.2579 C.ar    1  UNL1        0.1217
     15 C          62.9367   90.5410   12.3723 C.ar    1  UNL1        0.0214
     16 S          63.8733   91.0456   14.7426 S.O2    1  UNL1        0.0572
     17 N          63.8327   90.8355   16.2273 N.3     1  UNL1       -0.2035
     18 O          64.9688   92.0555   14.9154 O.2     1  UNL1       -0.1532
     19 O          62.7778   90.0357   14.5698 O.2     1  UNL1       -0.1532
     20 H          64.5259   91.4354   16.6746 H       1  UNL1        0.1442
     21 H          64.0408   89.8596   16.4384 H       1  UNL1        0.1442
     22 C          62.9537   85.2868   12.8530 C.2     1  UNL1        0.2447
     23 O          63.3492   86.7052   13.1388 O.2     1  UNL1       -0.2730
     24 N          62.0782   84.9750   11.6757 N.am    1  UNL1       -0.2857
     25 H          61.8186   84.0440   11.4882 H       1  UNL1        0.1546
     26 C          63.4338   84.1802   13.7447 C.3     1  UNL1        0.1577
     27 C          63.5279   81.9459   12.4222 C.ar    1  UNL1       -0.0244
     28 C          63.0421   80.5435   12.2050 C.ar    1  UNL1       -0.0045
     29 C          61.9763   79.9729   13.0931 C.ar    1  UNL1       -0.0003
     30 C          61.3965   80.8048   14.1984 C.ar    1  UNL1       -0.0003
     31 C          61.8823   82.2072   14.4156 C.ar    1  UNL1       -0.0028
     32 C          62.9480   82.7778   13.5275 C.ar    1  UNL1       -0.0030
     33 C          64.2668   82.8988   10.1209 C.3     1  UNL1        0.0050
     34 C          64.5936   82.5165   11.5341 C.3     1  UNL1        0.0261
     35 N          64.3998   84.4760   14.8535 N.3     1  UNL1       -0.2605
     36 C          63.8893   84.8070   16.2245 C.3     1  UNL1        0.0903
     37 C          65.8763   84.4409   14.5912 C.3     1  UNL1        0.0903
@<TRIPOS>BOND
     1    33    34    1
     2    34    27    1
     3    27    28   ar
     4    28    29   ar
     5    29    30   ar
     6    30    31   ar
     7    31    32   ar
     8    32    26    1
     9    26    22    1
    10    22    23    2
    11    22    24   am
    12    24     1    1
    13     1     2    2
    14     2     3    1
    15     3     4    2
    16     4     5    1
    17     5     6    2
    18     6     7    1
    19     7    10    1
    20    10    11   ar
    21    11    12   ar
    22    12    13   ar
    23    13    14   ar
    24    14    16    1
    25    16    17    1
    26    16    18    2
    27    16    19    2
    28    14    15   ar
    29     7     8    2
    30     8     9    1
    31    26    35    1
    32    35    36    1
    33    35    37    1
    34    32    27   ar
    35     9     1    1
    36     8     4    1
    37    15    10   ar
    38    24    25    1
    39    17    20    1
    40    17    21    1
@<TRIPOS>MOLECULE
*****
 37 40 0 0 0
SMALL
GASTEIGER

@<TRIPOS>ATOM
      1 C          63.7181   86.8037   14.8814 C.2     1  UNL1        0.0320
      2 C          63.4786   86.7804   16.3620 C.2     1  UNL1        0.0122
      3 C          63.3559   88.0676   17.1222 C.2     1  UNL1        0.0216
      4 C          63.4728   89.3782   16.4018 C.2     1  UNL1        0.1008
      5 N          63.3956   90.7974   16.8813 N.2     1  UNL1       -0.1483
      6 N          63.5874   91.6978   15.6970 N.2     1  UNL1       -0.1483
      7 C          63.7832   90.8350   14.4857 C.2     1  UNL1        0.1007
      8 C          63.7123   89.4014   14.9213 C.2     1  UNL1        0.0223
      9 C          63.8350   88.1142   14.1611 C.3     1  UNL1        0.0706
     10 C          64.0099   91.3206   13.0847 C.ar    1  UNL1        0.0205
     11 C          63.1993   90.7574   11.9553 C.ar    1  UNL1        0.0016
     12 C          63.4261   91.2429   10.5543 C.ar    1  UNL1        0.0014
     13 C          64.4635   92.2917   10.2826 C.ar    1  UNL1        0.0199
     14 C          65.2741   92.8549   11.4121 C.ar    1  UNL1        0.1217
     15 C          65.0473   92.3694   12.8131 C.ar    1  UNL1        0.0214
     16 S          66.3116   93.9038   11.1405 S.O2    1  UNL1        0.0572
     17 N          67.3490   94.9526   10.8690 N.3     1  UNL1       -0.2035
     18 O          66.2154   94.3674   12.5638 O.2     1  UNL1       -0.1532
     19 O          66.4078   93.4401    9.7172 O.2     1  UNL1       -0.1532
     20 H          67.5225   95.4875   11.7200 H       1  UNL1        0.1442
     21 H          67.0159   95.5786   10.1358 H       1  UNL1        0.1442
     22 C          62.7323   84.5071   14.1715 C.2     1  UNL1        0.2447
     23 O          61.5012   84.7850   14.9821 O.2     1  UNL1       -0.2730
     24 N          63.8408   85.5164   14.1212 N.am    1  UNL1       -0.2857
     25 H          64.6488   85.3340   13.5892 H       1  UNL1        0.1546
     26 C          62.8550   83.2198   13.4113 C.3     1  UNL1        0.1577
     27 C          62.7613   84.3216   11.0603 C.ar    1  UNL1       -0.0244
     28 C          63.1682   84.3391    9.6167 C.ar    1  UNL1       -0.0045
     29 C          64.0759   83.2721    9.0804 C.ar    1  UNL1       -0.0003
     30 C          64.5767   82.1876    9.9878 C.ar    1  UNL1       -0.0003
     31 C          64.1697   82.1702   11.4314 C.ar    1  UNL1       -0.0028
     32 C          63.2620   83.2372   11.9677 C.ar    1  UNL1       -0.0030
     33 C          62.0764   86.8229   11.2179 C.3     1  UNL1        0.0050
     34 C          61.8536   85.3886   11.5966 C.3     1  UNL1        0.0261
     35 N          62.5707   81.9152   14.0947 N.3     1  UNL1       -0.2605
     36 C          63.6979   81.1043   14.6619 C.3     1  UNL1        0.0903
     37 C          61.1590   81.4214   14.2108 C.3     1  UNL1        0.0903
@<TRIPOS>BOND
     1    33    34    1
     2    34    27    1
     3    27    28   ar
     4    28    29   ar
     5    29    30   ar
     6    30    31   ar
     7    31    32   ar
     8    32    26    1
     9    26    22    1
    10    22    23    2
    11    22    24   am
    12    24     1    1
    13     1     2    2
    14     2     3    1
    15     3     4    2
    16     4     5    1
    17     5     6    2
    18     6     7    1
    19     7    10    1
    20    10    11   ar
    21    11    12   ar
    22    12    13   ar
    23    13    14   ar
    24    14    16    1
    25    16    17    1
    26    16    18    2
    27    16    19    2
    28    14    15   ar
    29     7     8    2
    30     8     9    1
    31    26    35    1
    32    35    36    1
    33    35    37    1
    34    32    27   ar
    35     9     1    1
    36     8     4    1
    37    15    10   ar
    38    24    25    1
    39    17    20    1
    40    17    21    1
@<TRIPOS>MOLECULE
*****
 37 40 0 0 0
SMALL
GASTEIGER

@<TRIPOS>ATOM
      1 C          61.7740   86.3215   10.9708 C.2     1  UNL1        0.0320
      2 C          60.7176   86.1200    9.9252 C.2     1  UNL1        0.0122
      3 C          60.2720   87.2742    9.0771 C.2     1  UNL1        0.0216
      4 C          60.8828   88.6298    9.2746 C.2     1  UNL1        0.1008
      5 N          60.6470   89.9458    8.5941 N.2     1  UNL1       -0.1483
      6 N          61.5578   90.9605    9.2192 N.2     1  UNL1       -0.1483
      7 C          62.3565   90.2718   10.2859 C.2     1  UNL1        0.1007
      8 C          61.9393   88.8314   10.3201 C.2     1  UNL1        0.0223
      9 C          62.3849   87.6772   11.1682 C.3     1  UNL1        0.0706
     10 C          63.3907   90.9112   11.1642 C.ar    1  UNL1        0.0205
     11 C          63.4295   90.5946   12.6299 C.ar    1  UNL1        0.0016
     12 C          64.4638   91.2340   13.5082 C.ar    1  UNL1        0.0014
     13 C          65.4593   92.1900   12.9210 C.ar    1  UNL1        0.0199
     14 C          65.4205   92.5066   11.4553 C.ar    1  UNL1        0.1217
     15 C          64.3862   91.8672   10.5769 C.ar    1  UNL1        0.0214
     16 S          66.4160   93.4627   10.8679 S.O2    1  UNL1        0.0572
     17 N          67.4115   94.4187   10.2805 N.3     1  UNL1       -0.2035
     18 O          67.5242   92.5023   11.1829 O.2     1  UNL1       -0.1532
     19 O          65.3077   94.4232   10.5529 O.2     1  UNL1       -0.1532
     20 H          68.3476   94.0196   10.3493 H       1  UNL1        0.1442
     21 H          67.3792   95.3003   10.7925 H       1  UNL1        0.1442
     22 C          63.0846   85.4094   13.0203 C.2     1  UNL1        0.2447
     23 O          63.5038   86.8056   13.3736 O.2     1  UNL1       -0.2730
     24 N          62.2197   85.1674   11.8189 N.am    1  UNL1       -0.2857
     25 H          61.9445   84.2510   11.5871 H       1  UNL1        0.1546
     26 C          63.5302   84.2552   13.8685 C.3     1  UNL1        0.1577
     27 C          63.5325   82.0625   12.4750 C.ar    1  UNL1       -0.0244
     28 C          62.9913   80.6879   12.2152 C.ar    1  UNL1       -0.0045
     29 C          61.9066   80.1313   13.0891 C.ar    1  UNL1       -0.0003
     30 C          61.3632   80.9495   14.2229 C.ar    1  UNL1       -0.0003
     31 C          61.9044   82.3241   14.4826 C.ar    1  UNL1       -0.0028
     32 C          62.9890   82.8806   13.6087 C.ar    1  UNL1       -0.0030
     33 C          64.3207   82.9799   10.1756 C.3     1  UNL1        0.0050
     34 C          64.6172   82.6191   11.6011 C.3     1  UNL1        0.0261
     35 N          64.5171   84.4757   14.9764 N.3     1  UNL1       -0.2605
     36 C          65.9874   84.4870   14.6799 C.3     1  UNL1        0.0903
     37 C          64.0335   84.6850   16.3809 C.3     1  UNL1        0.0903
@<TRIPOS>BOND
     1    33    34    1
     2    34    27    1
     3    27    28   ar
     4    28    29   ar
     5    29    30   ar
     6    30    31   ar
     7    31    32   ar
     8    32    26    1
     9    26    22    1
    10    22    23    2
    11    22    24   am
    12    24     1    1
    13     1     2    2
    14     2     3    1
    15     3     4    2
    16     4     5    1
    17     5     6    2
    18     6     7    1
    19     7    10    1
    20    10    11   ar
    21    11    12   ar
    22    12    13   ar
    23    13    14   ar
    24    14    16    1
    25    16    17    1
    26    16    18    2
    27    16    19    2
    28    14    15   ar
    29     7     8    2
    30     8     9    1
    31    26    35    1
    32    35    36    1
    33    35    37    1
    34    32    27   ar
    35     9     1    1
    36     8     4    1
    37    15    10   ar
    38    24    25    1
    39    17    20    1
    40    17    21    1
@<TRIPOS>MOLECULE
*****
 37 40 0 0 0
SMALL
GASTEIGER

@<TRIPOS>ATOM
      1 C          61.6224   86.1656   10.5757 C.2     1  UNL1        0.0320
      2 C          60.7261   86.2160    9.3740 C.2     1  UNL1        0.0122
      3 C          60.3871   87.5354    8.7461 C.2     1  UNL1        0.0216
      4 C          60.9442   88.8044    9.3200 C.2     1  UNL1        0.1008
      5 N          60.7869   90.2412    8.9189 N.2     1  UNL1       -0.1483
      6 N          61.5860   91.0788    9.8728 N.2     1  UNL1       -0.1483
      7 C          62.2371   90.1596   10.8634 C.2     1  UNL1        0.1007
      8 C          61.8405   88.7540   10.5217 C.2     1  UNL1        0.0223
      9 C          62.1795   87.4346   11.1495 C.3     1  UNL1        0.0706
     10 C          63.1284   90.5734   11.9966 C.ar    1  UNL1        0.0205
     11 C          64.2820   91.4984   11.7443 C.ar    1  UNL1        0.0016
     12 C          65.1733   91.9122   12.8776 C.ar    1  UNL1        0.0014
     13 C          64.9111   91.4011   14.2632 C.ar    1  UNL1        0.0199
     14 C          63.7575   90.4761   14.5155 C.ar    1  UNL1        0.1217
     15 C          62.8662   90.0623   13.3822 C.ar    1  UNL1        0.0214
     16 S          63.4952   89.9649   15.9012 S.O2    1  UNL1        0.0572
     17 N          63.2329   89.4538   17.2868 N.3     1  UNL1       -0.2035
     18 O          63.4005   91.3751   16.4035 O.2     1  UNL1       -0.1532
     19 O          63.5899   88.5547   15.3989 O.2     1  UNL1       -0.1532
     20 H          63.1128   90.2421   17.9229 H       1  UNL1        0.1442
     21 H          64.0222   88.8857   17.5947 H       1  UNL1        0.1442
     22 C          62.6927   84.8044   12.5127 C.2     1  UNL1        0.2447
     23 O          63.0847   86.0821   13.1938 O.2     1  UNL1       -0.2730
     24 N          61.9615   84.8462   11.2036 N.am    1  UNL1       -0.2857
     25 H          61.7042   84.0077   10.7565 H       1  UNL1        0.1546
     26 C          63.0318   83.4850   13.1406 C.3     1  UNL1        0.1577
     27 C          62.3247   81.0087   12.7981 C.ar    1  UNL1       -0.0244
     28 C          62.3262   79.7604   11.9662 C.ar    1  UNL1       -0.0045
     29 C          63.0361   79.7404   10.6450 C.ar    1  UNL1       -0.0003
     30 C          63.7447   80.9687   10.1557 C.ar    1  UNL1       -0.0003
     31 C          63.7432   82.2169   10.9875 C.ar    1  UNL1       -0.0028
     32 C          63.0332   82.2369   12.3087 C.ar    1  UNL1       -0.0030
     33 C          60.1929   80.5600   14.2138 C.3     1  UNL1        0.0050
     34 C          61.6148   81.0287   14.1193 C.3     1  UNL1        0.0261
     35 N          63.3694   83.4139   14.6003 N.3     1  UNL1       -0.2605
     36 C          62.3801   83.8886   15.6230 C.3     1  UNL1        0.0903
     37 C          64.6965   82.8680   15.0374 C.3     1  UNL1        0.0903
@<TRIPOS>BOND
     1    33    34    1
     2    34    27    1
     3    27    28   ar
     4    28    29   ar
     5    29    30   ar
     6    30    31   ar
     7    31    32   ar
     8    32    26    1
     9    26    22    1
    10    22    23    2
    11    22    24   am
    12    24     1    1
    13     1     2    2
    14     2     3    1
    15     3     4    2
    16     4     5    1
    17     5     6    2
    18     6     7    1
    19     7    10    1
    20    10    11   ar
    21    11    12   ar
    22    12    13   ar
    23    13    14   ar
    24    14    16    1
    25    16    17    1
    26    16    18    2
    27    16    19    2
    28    14    15   ar
    29     7     8    2
    30     8     9    1
    31    26    35    1
    32    35    36    1
    33    35    37    1
    34    32    27   ar
    35     9     1    1
    36     8     4    1
    37    15    10   ar
    38    24    25    1
    39    17    20    1
    40    17    21    1
@<TRIPOS>MOLECULE
*****
 37 40 0 0 0
SMALL
GASTEIGER

@<TRIPOS>ATOM
      1 C          63.8453   86.6793   14.4050 C.2     1  UNL1        0.0320
      2 C          63.6169   86.5772   15.8840 C.2     1  UNL1        0.0122
      3 C          63.4683   87.8221   16.7075 C.2     1  UNL1        0.0216
      4 C          63.5481   89.1689   16.0521 C.2     1  UNL1        0.1008
      5 N          63.4398   90.5606   16.6015 N.2     1  UNL1       -0.1483
      6 N          63.6013   91.5226   15.4620 N.2     1  UNL1       -0.1483
      7 C          63.8094   90.7256   14.2084 C.2     1  UNL1        0.1007
      8 C          63.7766   89.2710   14.5731 C.2     1  UNL1        0.0223
      9 C          63.9252   88.0261   13.7496 C.3     1  UNL1        0.0706
     10 C          64.0144   91.2849   12.8318 C.ar    1  UNL1        0.0205
     11 C          63.1542   90.8160   11.6960 C.ar    1  UNL1        0.0016
     12 C          63.3592   91.3754   10.3194 C.ar    1  UNL1        0.0014
     13 C          64.4244   92.4037   10.0785 C.ar    1  UNL1        0.0199
     14 C          65.2846   92.8726   11.2144 C.ar    1  UNL1        0.1217
     15 C          65.0796   92.3132   12.5910 C.ar    1  UNL1        0.0214
     16 S          66.3498   93.9010   10.9737 S.O2    1  UNL1        0.0572
     17 N          67.4150   94.9293   10.7330 N.3     1  UNL1       -0.2035
     18 O          66.1661   94.4180   12.3697 O.2     1  UNL1       -0.1532
     19 O          66.5334   93.3839    9.5776 O.2     1  UNL1       -0.1532
     20 H          67.5386   95.4938   11.5735 H       1  UNL1        0.1442
     21 H          67.1378   95.5307    9.9572 H       1  UNL1        0.1442
     22 C          62.9479   85.0764   12.5677 C.2     1  UNL1        0.2447
     23 O          61.7532   85.9633   12.3776 O.2     1  UNL1       -0.2730
     24 N          63.9939   85.4344   13.5814 N.am    1  UNL1       -0.2857
     25 H          64.7780   84.8523   13.7062 H       1  UNL1        0.1546
     26 C          63.0965   83.8315   11.7441 C.3     1  UNL1        0.1577
     27 C          62.1840   82.4121   13.7195 C.ar    1  UNL1       -0.0244
     28 C          61.8460   81.0761   14.3120 C.ar    1  UNL1       -0.0045
     29 C          62.0824   79.8236   13.5212 C.ar    1  UNL1       -0.0003
     30 C          62.6569   79.9071   12.1380 C.ar    1  UNL1       -0.0003
     31 C          62.9949   81.2431   11.5457 C.ar    1  UNL1       -0.0028
     32 C          62.7585   82.4956   12.3365 C.ar    1  UNL1       -0.0030
     33 C          62.2979   83.7085   15.9682 C.3     1  UNL1        0.0050
     34 C          61.9476   83.6647   14.5103 C.3     1  UNL1        0.0261
     35 N          63.5831   83.9227   10.3282 N.3     1  UNL1       -0.2605
     36 C          63.0171   84.9615    9.4060 C.3     1  UNL1        0.0903
     37 C          64.6359   82.9750    9.8344 C.3     1  UNL1        0.0903
@<TRIPOS>BOND
     1    33    34    1
     2    34    27    1
     3    27    28   ar
     4    28    29   ar
     5    29    30   ar
     6    30    31   ar
     7    31    32   ar
     8    32    26    1
     9    26    22    1
    10    22    23    2
    11    22    24   am
    12    24     1    1
    13     1     2    2
    14     2     3    1
    15     3     4    2
    16     4     5    1
    17     5     6    2
    18     6     7    1
    19     7    10    1
    20    10    11   ar
    21    11    12   ar
    22    12    13   ar
    23    13    14   ar
    24    14    16    1
    25    16    17    1
    26    16    18    2
    27    16    19    2
    28    14    15   ar
    29     7     8    2
    30     8     9    1
    31    26    35    1
    32    35    36    1
    33    35    37    1
    34    32    27   ar
    35     9     1    1
    36     8     4    1
    37    15    10   ar
    38    24    25    1
    39    17    20    1
    40    17    21    1
@<TRIPOS>MOLECULE
*****
 37 40 0 0 0
SMALL
GASTEIGER

@<TRIPOS>ATOM
      1 C          62.0479   86.2870   10.7726 C.2     1  UNL1        0.0320
      2 C          60.7711   86.2184    9.9884 C.2     1  UNL1        0.0122
      3 C          60.0159   87.4756    9.6735 C.2     1  UNL1        0.0216
      4 C          60.5376   88.8013   10.1427 C.2     1  UNL1        0.1008
      5 N          60.0147   90.1985    9.9851 N.2     1  UNL1       -0.1483
      6 N          60.9685   91.1305   10.6718 N.2     1  UNL1       -0.1483
      7 C          62.0807   90.3094   11.2539 C.2     1  UNL1        0.1007
      8 C          61.8144   88.8700   10.9269 C.2     1  UNL1        0.0223
      9 C          62.5696   87.6128   11.2418 C.3     1  UNL1        0.0706
     10 C          63.2534   90.8355   12.0272 C.ar    1  UNL1        0.0205
     11 C          63.4925   90.3732   13.4340 C.ar    1  UNL1        0.0016
     12 C          64.6652   90.8992   14.2073 C.ar    1  UNL1        0.0014
     13 C          65.5989   91.8876   13.5739 C.ar    1  UNL1        0.0199
     14 C          65.3599   92.3499   12.1671 C.ar    1  UNL1        0.1217
     15 C          64.1872   91.8238   11.3938 C.ar    1  UNL1        0.0214
     16 S          66.2936   93.3383   11.5335 S.O2    1  UNL1        0.0572
     17 N          67.2273   94.3266   10.8999 N.3     1  UNL1       -0.2035
     18 O          65.3990   93.4132   10.3319 O.2     1  UNL1       -0.1532
     19 O          67.1882   93.2633   12.7352 O.2     1  UNL1       -0.1532
     20 H          66.8653   94.5986    9.9860 H       1  UNL1        0.1442
     21 H          68.1477   93.9016   10.7883 H       1  UNL1        0.1442
     22 C          62.7488   84.4484   12.4692 C.2     1  UNL1        0.2447
     23 O          61.9392   85.1242   13.5359 O.2     1  UNL1       -0.2730
     24 N          62.8031   85.0298   11.0875 N.am    1  UNL1       -0.2857
     25 H          63.3345   84.5863   10.3874 H       1  UNL1        0.1546
     26 C          63.5040   83.1912   12.7842 C.3     1  UNL1        0.1577
     27 C          62.4916   80.8116   12.5349 C.ar    1  UNL1       -0.0244
     28 C          62.2651   79.5755   11.7159 C.ar    1  UNL1       -0.0045
     29 C          62.8246   79.4829   10.3273 C.ar    1  UNL1       -0.0003
     30 C          63.6105   80.6265    9.7576 C.ar    1  UNL1       -0.0003
     31 C          63.8370   81.8626   10.5765 C.ar    1  UNL1       -0.0028
     32 C          63.2775   81.9551   11.9652 C.ar    1  UNL1       -0.0030
     33 C          60.4813   80.6122   14.1687 C.3     1  UNL1        0.0050
     34 C          61.9321   80.9042   13.9236 C.3     1  UNL1        0.0261
     35 N          64.4857   83.1702   13.9181 N.3     1  UNL1       -0.2605
     36 C          65.1358   84.4438   14.3710 C.3     1  UNL1        0.0903
     37 C          64.8172   81.8755   14.5992 C.3     1  UNL1        0.0903
@<TRIPOS>BOND
     1    33    34    1
     2    34    27    1
     3    27    28   ar
     4    28    29   ar
     5    29    30   ar
     6    30    31   ar
     7    31    32   ar
     8    32    26    1
     9    26    22    1
    10    22    23    2
    11    22    24   am
    12    24     1    1
    13     1     2    2
    14     2     3    1
    15     3     4    2
    16     4     5    1
    17     5     6    2
    18     6     7    1
    19     7    10    1
    20    10    11   ar
    21    11    12   ar
    22    12    13   ar
    23    13    14   ar
    24    14    16    1
    25    16    17    1
    26    16    18    2
    27    16    19    2
    28    14    15   ar
    29     7     8    2
    30     8     9    1
    31    26    35    1
    32    35    36    1
    33    35    37    1
    34    32    27   ar
    35     9     1    1
    36     8     4    1
    37    15    10   ar
    38    24    25    1
    39    17    20    1
    40    17    21    1
