@<TRIPOS>MOLECULE
*****
 33 36 0 0 0
SMALL
GASTEIGER

@<TRIPOS>ATOM
      1 C          63.8084   89.5493   15.1542 C.2     1  UNL1        0.2320
      2 O          62.4016   89.4865   15.6709 O.2     1  UNL1       -0.2744
      3 N          64.5738   88.2832   14.9071 N.am    1  UNL1       -0.2639
      4 H          65.4972   88.3244   14.5680 H       1  UNL1        0.1567
      5 C          63.9325   86.9544   15.1767 C.ar    1  UNL1        0.1655
      6 N          63.7741   85.8355   14.1903 N.ar    1  UNL1       -0.2239
      7 C          63.0807   84.7006   14.8839 C.ar    1  UNL1        0.0913
      8 C          62.8104   85.1181   16.2990 C.ar    1  UNL1        0.0573
      9 S          63.3369   86.5109   16.4800 S.2     1  UNL1       -0.0508
     10 C          62.7206   83.3801   14.2701 C.ar    1  UNL1        0.0404
     11 C          61.9529   82.2778   14.9375 C.ar    1  UNL1        0.1021
     12 N          61.8229   81.1465   13.9611 N.ar    1  UNL1       -0.2269
     13 C          62.5102   81.5498   12.6903 C.ar    1  UNL1        0.1407
     14 N          62.7026   80.8383   11.3839 N.ar    1  UNL1       -0.3356
     15 C          63.4497   81.5072   10.2685 C.ar    1  UNL1        0.1035
     16 C          64.0046   82.8877   10.4595 C.ar    1  UNL1        0.1572
     17 F          64.7518   83.5567    9.3440 F       1  UNL1       -0.2026
     18 C          63.8122   83.5992   11.7659 C.ar    1  UNL1        0.0343
     19 C          63.0650   82.9302   12.8813 C.ar    1  UNL1        0.0392
     20 H          62.3384   79.9322   11.2585 H       1  UNL1        0.1675
     21 C          64.4498   90.8782   14.8847 C.3     1  UNL1        0.1117
     22 C          65.7782   92.8978   11.7372 C.ar    1  UNL1        0.0641
     23 C          64.9043   92.3402   10.6531 C.ar    1  UNL1        0.0158
     24 C          63.8789   91.2952   10.9795 C.ar    1  UNL1        0.0010
     25 C          63.7274   90.8078   12.3901 C.ar    1  UNL1       -0.0037
     26 C          64.6013   91.3656   13.4742 C.ar    1  UNL1       -0.0118
     27 C          65.6268   92.4106   13.1477 C.ar    1  UNL1        0.0121
     28 N          66.8036   93.9428   11.4108 N.pl3   1  UNL1       -0.2187
     29 H          67.3627   94.3241   12.1258 H       1  UNL1        0.1734
     30 C          67.1507   94.8709    8.5791 C.3     1  UNL1        0.1996
     31 S          66.9772   94.4068    9.9949 S.O2    1  UNL1        0.0558
     32 O          65.8513   95.3814   10.1764 O.2     1  UNL1       -0.1544
     33 O          68.1030   93.4323    9.8135 O.2     1  UNL1       -0.1544
@<TRIPOS>BOND
     1    30    31    1
     2    31    32    2
     3    31    33    2
     4    31    28    1
     5    28    22    1
     6    22    23   ar
     7    23    24   ar
     8    24    25   ar
     9    25    26   ar
    10    26    21    1
    11    21     1    1
    12     1     2    2
    13     1     3   am
    14     3     5    1
    15     5     6   ar
    16     6     7   ar
    17     7    10    1
    18    10    11   ar
    19    11    12   ar
    20    12    13   ar
    21    13    14   ar
    22    14    15   ar
    23    15    16   ar
    24    16    17    1
    25    16    18   ar
    26    18    19   ar
    27     7     8   ar
    28     8     9   ar
    29    26    27   ar
    30    27    22   ar
    31     9     5   ar
    32    19    10   ar
    33    19    13    1
    34    28    29    1
    35     3     4    1
    36    14    20    1
@<TRIPOS>MOLECULE
*****
 33 36 0 0 0
SMALL
GASTEIGER

@<TRIPOS>ATOM
      1 C          62.7623   90.1025   12.2247 C.2     1  UNL1        0.2320
      2 O          62.0432   89.7126   13.4821 O.2     1  UNL1       -0.2744
      3 N          63.0704   89.0662   11.1850 N.am    1  UNL1       -0.2639
      4 H          63.5423   89.3220   10.3597 H       1  UNL1        0.1567
      5 C          62.6594   87.6402   11.4025 C.ar    1  UNL1        0.1655
      6 N          63.0442   86.7798   12.5695 N.ar    1  UNL1       -0.2239
      7 C          62.4141   85.4320   12.3795 C.ar    1  UNL1        0.0913
      8 C          61.6399   85.4591   11.0950 C.ar    1  UNL1        0.0573
      9 S          61.7915   86.8238   10.4912 S.2     1  UNL1       -0.0508
     10 C          62.5367   84.2622   13.3105 C.ar    1  UNL1        0.0404
     11 C          62.5674   84.3273   14.8087 C.ar    1  UNL1        0.1021
     12 N          62.6998   82.9273   15.3308 N.ar    1  UNL1       -0.2269
     13 C          62.7509   81.9970   14.1552 C.ar    1  UNL1        0.1407
     14 N          62.8763   80.5053   14.0604 N.ar    1  UNL1       -0.3356
     15 C          62.9009   79.8387   12.7169 C.ar    1  UNL1        0.1035
     16 C          62.8001   80.6637   11.4683 C.ar    1  UNL1        0.1572
     17 F          62.8247   79.9970   10.1248 F       1  UNL1       -0.2026
     18 C          62.6748   82.1554   11.5631 C.ar    1  UNL1        0.0343
     19 C          62.6502   82.8221   12.9065 C.ar    1  UNL1        0.0392
     20 H          62.9424   79.9638   14.8799 H       1  UNL1        0.1675
     21 C          63.1733   91.5286   12.0072 C.3     1  UNL1        0.1117
     22 C          66.9458   91.9856   13.1515 C.ar    1  UNL1        0.0641
     23 C          67.5367   92.6261   11.9306 C.ar    1  UNL1        0.0158
     24 C          66.6732   92.9008   10.7353 C.ar    1  UNL1        0.0010
     25 C          65.2187   92.5349   10.7608 C.ar    1  UNL1       -0.0037
     26 C          64.6277   91.8944   11.9817 C.ar    1  UNL1       -0.0118
     27 C          65.4913   91.6197   13.1771 C.ar    1  UNL1        0.0121
     28 N          67.8093   91.7109   14.3469 N.pl3   1  UNL1       -0.2187
     29 H          68.0440   90.7842   14.5821 H       1  UNL1        0.1734
     30 C          68.8212   93.9855   16.0209 C.3     1  UNL1        0.1996
     31 S          68.3152   92.8482   15.1839 S.O2    1  UNL1        0.0558
     32 O          69.6404   92.7730   14.4850 O.2     1  UNL1       -0.1544
     33 O          66.9901   92.9234   15.8828 O.2     1  UNL1       -0.1544
@<TRIPOS>BOND
     1    30    31    1
     2    31    32    2
     3    31    33    2
     4    31    28    1
     5    28    22    1
     6    22    23   ar
     7    23    24   ar
     8    24    25   ar
     9    25    26   ar
    10    26    21    1
    11    21     1    1
    12     1     2    2
    13     1     3   am
    14     3     5    1
    15     5     6   ar
    16     6     7   ar
    17     7    10    1
    18    10    11   ar
    19    11    12   ar
    20    12    13   ar
    21    13    14   ar
    22    14    15   ar
    23    15    16   ar
    24    16    17    1
    25    16    18   ar
    26    18    19   ar
    27     7     8   ar
    28     8     9   ar
    29    26    27   ar
    30    27    22   ar
    31     9     5   ar
    32    19    10   ar
    33    19    13    1
    34    28    29    1
    35     3     4    1
    36    14    20    1
@<TRIPOS>MOLECULE
*****
 33 36 0 0 0
SMALL
GASTEIGER

@<TRIPOS>ATOM
      1 C          62.8217   89.9557   11.8155 C.2     1  UNL1        0.2320
      2 O          62.3825   89.5845   13.2009 O.2     1  UNL1       -0.2744
      3 N          62.9163   88.9027   10.7514 N.am    1  UNL1       -0.2639
      4 H          63.2045   89.1463    9.8421 H       1  UNL1        0.1567
      5 C          62.5716   87.4788   11.0726 C.ar    1  UNL1        0.1655
      6 N          62.9491   86.7406   12.3227 N.ar    1  UNL1       -0.2239
      7 C          62.3997   85.3484   12.2229 C.ar    1  UNL1        0.0913
      8 C          61.6826   85.2261   10.9111 C.ar    1  UNL1        0.0573
      9 S          61.7888   86.5427   10.2002 S.2     1  UNL1       -0.0508
     10 C          62.5424   84.2682   13.2538 C.ar    1  UNL1        0.0404
     11 C          62.6089   84.4698   14.7387 C.ar    1  UNL1        0.1021
     12 N          62.7512   83.1229   15.3834 N.ar    1  UNL1       -0.2269
     13 C          62.7726   82.0889   14.2969 C.ar    1  UNL1        0.1407
     14 N          62.8930   80.5943   14.3361 N.ar    1  UNL1       -0.3356
     15 C          62.8843   79.8075   13.0590 C.ar    1  UNL1        0.1035
     16 C          62.7552   80.5154   11.7429 C.ar    1  UNL1        0.1572
     17 F          62.7465   79.7285   10.4658 F       1  UNL1       -0.2026
     18 C          62.6349   82.0100   11.7037 C.ar    1  UNL1        0.0343
     19 C          62.6436   82.7968   12.9808 C.ar    1  UNL1        0.0392
     20 H          62.9777   80.1297   15.1999 H       1  UNL1        0.1675
     21 C          63.1664   91.3798   11.4942 C.3     1  UNL1        0.1117
     22 C          66.3343   93.7408   11.8688 C.ar    1  UNL1        0.0641
     23 C          66.9380   93.2067   13.1338 C.ar    1  UNL1        0.0158
     24 C          66.2845   92.0636   13.8524 C.ar    1  UNL1        0.0010
     25 C          65.0272   91.4546   13.3058 C.ar    1  UNL1       -0.0037
     26 C          64.4236   91.9887   12.0407 C.ar    1  UNL1       -0.0118
     27 C          65.0772   93.1319   11.3223 C.ar    1  UNL1        0.0121
     28 N          66.9878   94.8839   11.1503 N.pl3   1  UNL1       -0.2187
     29 H          67.2855   95.6759   11.6535 H       1  UNL1        0.1734
     30 C          67.3875   94.7565    8.1797 C.3     1  UNL1        0.1996
     31 S          67.1877   94.8202    9.6650 S.O2    1  UNL1        0.0558
     32 O          66.1420   95.8794    9.4789 O.2     1  UNL1       -0.1544
     33 O          68.2334   93.7610    9.8511 O.2     1  UNL1       -0.1544
@<TRIPOS>BOND
     1    30    31    1
     2    31    32    2
     3    31    33    2
     4    31    28    1
     5    28    22    1
     6    22    23   ar
     7    23    24   ar
     8    24    25   ar
     9    25    26   ar
    10    26    21    1
    11    21     1    1
    12     1     2    2
    13     1     3   am
    14     3     5    1
    15     5     6   ar
    16     6     7   ar
    17     7    10    1
    18    10    11   ar
    19    11    12   ar
    20    12    13   ar
    21    13    14   ar
    22    14    15   ar
    23    15    16   ar
    24    16    17    1
    25    16    18   ar
    26    18    19   ar
    27     7     8   ar
    28     8     9   ar
    29    26    27   ar
    30    27    22   ar
    31     9     5   ar
    32    19    10   ar
    33    19    13    1
    34    28    29    1
    35     3     4    1
    36    14    20    1
@<TRIPOS>MOLECULE
*****
 33 36 0 0 0
SMALL
GASTEIGER

@<TRIPOS>ATOM
      1 C          61.7065   87.2561   10.9251 C.2     1  UNL1        0.2320
      2 O          60.8196   88.4166   10.5837 O.2     1  UNL1       -0.2744
      3 N          62.9177   87.4654   11.7849 N.am    1  UNL1       -0.2639
      4 H          63.4998   86.7037   12.0090 H       1  UNL1        0.1567
      5 C          63.2419   88.8350   12.3033 C.ar    1  UNL1        0.1655
      6 N          63.9020   89.1486   13.6133 N.ar    1  UNL1       -0.2239
      7 C          64.0310   90.6390   13.7224 C.ar    1  UNL1        0.0913
      8 C          63.4506   91.2467   12.4798 C.ar    1  UNL1        0.0573
      9 S          62.9629   90.1318   11.6028 S.2     1  UNL1       -0.0508
     10 C          64.6344   91.3900   14.8721 C.ar    1  UNL1        0.0404
     11 C          63.9177   91.8199   16.1177 C.ar    1  UNL1        0.1021
     12 N          64.9009   92.5385   16.9935 N.ar    1  UNL1       -0.2269
     13 C          66.2252   92.5527   16.2892 C.ar    1  UNL1        0.1407
     14 N          67.5597   93.1203   16.6723 N.ar    1  UNL1       -0.3356
     15 C          68.7295   92.9781   15.7443 C.ar    1  UNL1        0.1035
     16 C          68.5648   92.2682   14.4332 C.ar    1  UNL1        0.1572
     17 F          69.7348   92.1260   13.5052 F       1  UNL1       -0.2026
     18 C          67.2303   91.7006   14.0501 C.ar    1  UNL1        0.0343
     19 C          66.0605   91.8429   14.9781 C.ar    1  UNL1        0.0392
     20 H          67.6678   93.5862   17.5328 H       1  UNL1        0.1675
     21 C          61.3823   85.8864   10.4067 C.3     1  UNL1        0.1117
     22 C          63.3704   82.8579   12.0273 C.ar    1  UNL1        0.0641
     23 C          64.3325   82.5280   10.9248 C.ar    1  UNL1        0.0158
     24 C          64.3112   83.3176    9.6495 C.ar    1  UNL1        0.0010
     25 C          63.3278   84.4371    9.4768 C.ar    1  UNL1       -0.0037
     26 C          62.3657   84.7669   10.5794 C.ar    1  UNL1       -0.0118
     27 C          62.3871   83.9773   11.8547 C.ar    1  UNL1        0.0121
     28 N          63.3917   82.0684   13.3025 N.pl3   1  UNL1       -0.2187
     29 H          64.2151   82.0242   13.8404 H       1  UNL1        0.1734
     30 C          60.9252   80.6242   14.2140 C.3     1  UNL1        0.1996
     31 S          62.1585   81.3463   13.7582 S.O2    1  UNL1        0.0558
     32 O          61.9311   82.3958   14.8057 O.2     1  UNL1       -0.1544
     33 O          62.3859   80.2969   12.7109 O.2     1  UNL1       -0.1544
@<TRIPOS>BOND
     1    30    31    1
     2    31    32    2
     3    31    33    2
     4    31    28    1
     5    28    22    1
     6    22    23   ar
     7    23    24   ar
     8    24    25   ar
     9    25    26   ar
    10    26    21    1
    11    21     1    1
    12     1     2    2
    13     1     3   am
    14     3     5    1
    15     5     6   ar
    16     6     7   ar
    17     7    10    1
    18    10    11   ar
    19    11    12   ar
    20    12    13   ar
    21    13    14   ar
    22    14    15   ar
    23    15    16   ar
    24    16    17    1
    25    16    18   ar
    26    18    19   ar
    27     7     8   ar
    28     8     9   ar
    29    26    27   ar
    30    27    22   ar
    31     9     5   ar
    32    19    10   ar
    33    19    13    1
    34    28    29    1
    35     3     4    1
    36    14    20    1
@<TRIPOS>MOLECULE
*****
 33 36 0 0 0
SMALL
GASTEIGER

@<TRIPOS>ATOM
      1 C          62.2599   87.1459   10.5940 C.2     1  UNL1        0.2320
      2 O          61.9773   88.3278    9.7147 O.2     1  UNL1       -0.2744
      3 N          62.8544   87.3496   11.9561 N.am    1  UNL1       -0.2639
      4 H          63.0399   86.5739   12.5332 H       1  UNL1        0.1567
      5 C          63.1661   88.7351   12.4387 C.ar    1  UNL1        0.1655
      6 N          63.8664   89.0865   13.7178 N.ar    1  UNL1       -0.2239
      7 C          63.9655   90.5811   13.7968 C.ar    1  UNL1        0.0913
      8 C          63.3264   91.1536   12.5664 C.ar    1  UNL1        0.0573
      9 S          62.8324   90.0127   11.7271 S.2     1  UNL1       -0.0508
     10 C          64.5934   91.3656   14.9105 C.ar    1  UNL1        0.0404
     11 C          63.9072   91.8206   16.1643 C.ar    1  UNL1        0.1021
     12 N          64.9074   92.5690   16.9946 N.ar    1  UNL1       -0.2269
     13 C          66.2118   92.5765   16.2539 C.ar    1  UNL1        0.1407
     14 N          67.5512   93.1645   16.5859 N.ar    1  UNL1       -0.3356
     15 C          68.6964   93.0088   15.6299 C.ar    1  UNL1        0.1035
     16 C          68.5023   92.2650   14.3418 C.ar    1  UNL1        0.1572
     17 F          69.6477   92.1092   13.3858 F       1  UNL1       -0.2026
     18 C          67.1629   91.6770   14.0098 C.ar    1  UNL1        0.0343
     19 C          66.0177   91.8328   14.9658 C.ar    1  UNL1        0.0392
     20 H          67.6786   93.6527   17.4313 H       1  UNL1        0.1675
     21 C          61.9482   85.7603   10.1114 C.3     1  UNL1        0.1117
     22 C          63.6398   83.1307   12.5554 C.ar    1  UNL1        0.0641
     23 C          64.3783   82.2675   11.5758 C.ar    1  UNL1        0.0158
     24 C          64.3068   82.5686   10.1081 C.ar    1  UNL1        0.0010
     25 C          63.4967   83.7329    9.6199 C.ar    1  UNL1       -0.0037
     26 C          62.7582   84.5961   10.5995 C.ar    1  UNL1       -0.0118
     27 C          62.8298   84.2949   12.0673 C.ar    1  UNL1        0.0121
     28 N          63.7113   82.8296   14.0231 N.pl3   1  UNL1       -0.2187
     29 H          63.7074   81.8957   14.3348 H       1  UNL1        0.1734
     30 C          63.8663   85.0731   16.0088 C.3     1  UNL1        0.1996
     31 S          63.7887   83.9513   15.0159 S.O2    1  UNL1        0.0558
     32 O          65.1396   84.3288   14.4841 O.2     1  UNL1       -0.1544
     33 O          62.4380   83.5739   15.5478 O.2     1  UNL1       -0.1544
@<TRIPOS>BOND
     1    30    31    1
     2    31    32    2
     3    31    33    2
     4    31    28    1
     5    28    22    1
     6    22    23   ar
     7    23    24   ar
     8    24    25   ar
     9    25    26   ar
    10    26    21    1
    11    21     1    1
    12     1     2    2
    13     1     3   am
    14     3     5    1
    15     5     6   ar
    16     6     7   ar
    17     7    10    1
    18    10    11   ar
    19    11    12   ar
    20    12    13   ar
    21    13    14   ar
    22    14    15   ar
    23    15    16   ar
    24    16    17    1
    25    16    18   ar
    26    18    19   ar
    27     7     8   ar
    28     8     9   ar
    29    26    27   ar
    30    27    22   ar
    31     9     5   ar
    32    19    10   ar
    33    19    13    1
    34    28    29    1
    35     3     4    1
    36    14    20    1
@<TRIPOS>MOLECULE
*****
 33 36 0 0 0
SMALL
GASTEIGER

@<TRIPOS>ATOM
      1 C          63.6761   89.4833   15.1187 C.2     1  UNL1        0.2320
      2 O          62.4421   89.3442   15.9601 O.2     1  UNL1       -0.2744
      3 N          64.3929   88.2594   14.6306 N.am    1  UNL1       -0.2639
      4 H          65.2028   88.3506   14.0784 H       1  UNL1        0.1567
      5 C          63.8757   86.8964   14.9838 C.ar    1  UNL1        0.1655
      6 N          63.6257   85.7719   14.0230 N.ar    1  UNL1       -0.2239
      7 C          63.1132   84.5992   14.8052 C.ar    1  UNL1        0.0913
      8 C          63.0464   84.9988   16.2494 C.ar    1  UNL1        0.0573
      9 S          63.5176   86.4185   16.3598 S.2     1  UNL1       -0.0508
     10 C          62.7340   83.2616   14.2420 C.ar    1  UNL1        0.0404
     11 C          61.9541   82.1950   14.9521 C.ar    1  UNL1        0.1021
     12 N          61.8063   81.0300   14.0188 N.ar    1  UNL1       -0.2269
     13 C          62.4948   81.3766   12.7320 C.ar    1  UNL1        0.1407
     14 N          62.6738   80.6145   11.4525 N.ar    1  UNL1       -0.3356
     15 C          63.4261   81.2316   10.3110 C.ar    1  UNL1        0.1035
     16 C          63.9995   82.6108   10.4490 C.ar    1  UNL1        0.1572
     17 F          64.7519   83.2279    9.3074 F       1  UNL1       -0.2026
     18 C          63.8205   83.3729   11.7285 C.ar    1  UNL1        0.0343
     19 C          63.0682   82.7558   12.8700 C.ar    1  UNL1        0.0392
     20 H          62.2974   79.7093   11.3620 H       1  UNL1        0.1675
     21 C          64.1933   90.8462   14.7655 C.3     1  UNL1        0.1117
     22 C          63.3288   91.2109   10.9094 C.ar    1  UNL1        0.0641
     23 C          64.4379   92.1125   10.4542 C.ar    1  UNL1        0.0158
     24 C          65.4655   92.5920   11.4362 C.ar    1  UNL1        0.0010
     25 C          65.3840   92.1699   12.8733 C.ar    1  UNL1       -0.0037
     26 C          64.2748   91.2683   13.3284 C.ar    1  UNL1       -0.0118
     27 C          63.2473   90.7888   12.3464 C.ar    1  UNL1        0.0121
     28 N          62.3013   90.7314    9.9274 N.pl3   1  UNL1       -0.2187
     29 H          62.2305   91.1562    9.0421 H       1  UNL1        0.1734
     30 C          60.4617   88.4781   10.6614 C.3     1  UNL1        0.1996
     31 S          61.3815   89.6048   10.2944 S.O2    1  UNL1        0.0558
     32 O          60.3117   90.5941   10.6506 O.2     1  UNL1       -0.1544
     33 O          62.4512   88.6154    9.9382 O.2     1  UNL1       -0.1544
@<TRIPOS>BOND
     1    30    31    1
     2    31    32    2
     3    31    33    2
     4    31    28    1
     5    28    22    1
     6    22    23   ar
     7    23    24   ar
     8    24    25   ar
     9    25    26   ar
    10    26    21    1
    11    21     1    1
    12     1     2    2
    13     1     3   am
    14     3     5    1
    15     5     6   ar
    16     6     7   ar
    17     7    10    1
    18    10    11   ar
    19    11    12   ar
    20    12    13   ar
    21    13    14   ar
    22    14    15   ar
    23    15    16   ar
    24    16    17    1
    25    16    18   ar
    26    18    19   ar
    27     7     8   ar
    28     8     9   ar
    29    26    27   ar
    30    27    22   ar
    31     9     5   ar
    32    19    10   ar
    33    19    13    1
    34    28    29    1
    35     3     4    1
    36    14    20    1
@<TRIPOS>MOLECULE
*****
 33 36 0 0 0
SMALL
GASTEIGER

@<TRIPOS>ATOM
      1 C          63.4717   89.9860   14.4240 C.2     1  UNL1        0.2320
      2 O          63.8449   88.5501   14.6451 O.2     1  UNL1       -0.2744
      3 N          62.6322   90.3693   13.2415 N.am    1  UNL1       -0.2639
      4 H          62.3873   91.3117   13.0964 H       1  UNL1        0.1567
      5 C          62.1659   89.3167   12.2801 C.ar    1  UNL1        0.1655
      6 N          62.9466   88.1122   11.8444 N.ar    1  UNL1       -0.2239
      7 C          62.1002   87.3348   10.8806 C.ar    1  UNL1        0.0913
      8 C          60.7962   88.0587   10.7206 C.ar    1  UNL1        0.0573
      9 S          60.8368   89.2835   11.5855 S.2     1  UNL1       -0.0508
     10 C          62.4893   86.0577   10.1968 C.ar    1  UNL1        0.0404
     11 C          62.4870   85.8138    8.7168 C.ar    1  UNL1        0.1021
     12 N          62.9453   84.4056    8.4783 N.ar    1  UNL1       -0.2269
     13 C          63.2310   83.7792    9.8110 C.ar    1  UNL1        0.1407
     14 N          63.7113   82.4109   10.1946 N.ar    1  UNL1       -0.3356
     15 C          63.9098   82.0637   11.6402 C.ar    1  UNL1        0.1035
     16 C          63.6279   83.0847   12.7023 C.ar    1  UNL1        0.1572
     17 F          63.8264   82.7375   14.1481 F       1  UNL1       -0.2026
     18 C          63.1476   84.4530   12.3188 C.ar    1  UNL1        0.0343
     19 C          62.9491   84.8002   10.8731 C.ar    1  UNL1        0.0392
     20 H          63.8963   81.7408    9.4975 H       1  UNL1        0.1675
     21 C          63.9381   91.0387   15.3855 C.3     1  UNL1        0.1117
     22 C          67.2553   92.3353   13.6347 C.ar    1  UNL1        0.0641
     23 C          67.9291   93.0282   14.7818 C.ar    1  UNL1        0.0158
     24 C          67.2725   93.0580   16.1302 C.ar    1  UNL1        0.0010
     25 C          65.9421   92.3948   16.3314 C.ar    1  UNL1       -0.0037
     26 C          65.2684   91.7019   15.1842 C.ar    1  UNL1       -0.0118
     27 C          65.9250   91.6721   13.8359 C.ar    1  UNL1        0.0121
     28 N          67.9119   92.3055   12.2864 N.pl3   1  UNL1       -0.2187
     29 H          68.7818   91.8589   12.1722 H       1  UNL1        0.1734
     30 C          66.5740   93.6068    9.9375 C.3     1  UNL1        0.1996
     31 S          67.2430   92.9561   11.1120 S.O2    1  UNL1        0.0558
     32 O          66.7923   94.0834   11.9931 O.2     1  UNL1       -0.1544
     33 O          67.6936   91.8290   10.2308 O.2     1  UNL1       -0.1544
@<TRIPOS>BOND
     1    30    31    1
     2    31    32    2
     3    31    33    2
     4    31    28    1
     5    28    22    1
     6    22    23   ar
     7    23    24   ar
     8    24    25   ar
     9    25    26   ar
    10    26    21    1
    11    21     1    1
    12     1     2    2
    13     1     3   am
    14     3     5    1
    15     5     6   ar
    16     6     7   ar
    17     7    10    1
    18    10    11   ar
    19    11    12   ar
    20    12    13   ar
    21    13    14   ar
    22    14    15   ar
    23    15    16   ar
    24    16    17    1
    25    16    18   ar
    26    18    19   ar
    27     7     8   ar
    28     8     9   ar
    29    26    27   ar
    30    27    22   ar
    31     9     5   ar
    32    19    10   ar
    33    19    13    1
    34    28    29    1
    35     3     4    1
    36    14    20    1
@<TRIPOS>MOLECULE
*****
 33 36 0 0 0
SMALL
GASTEIGER

@<TRIPOS>ATOM
      1 C          64.3757   85.1416   15.2102 C.2     1  UNL1        0.2320
      2 O          65.7204   85.7315   14.9038 O.2     1  UNL1       -0.2744
      3 N          63.2458   86.0313   15.6365 N.am    1  UNL1       -0.2639
      4 H          62.3633   85.6441   15.8376 H       1  UNL1        0.1567
      5 C          63.4606   87.5109   15.7564 C.ar    1  UNL1        0.1655
      6 N          64.2110   88.3745   14.7862 N.ar    1  UNL1       -0.2239
      7 C          64.1768   89.7841   15.2977 C.ar    1  UNL1        0.0913
      8 C          63.4052   89.7919   16.5840 C.ar    1  UNL1        0.0573
      9 S          62.9626   88.3870   16.8675 S.2     1  UNL1       -0.0508
     10 C          64.8040   90.9767   14.6386 C.ar    1  UNL1        0.0404
     11 C          65.7360   91.9553   15.2896 C.ar    1  UNL1        0.1021
     12 N          66.1173   92.9834   14.2661 N.ar    1  UNL1       -0.2269
     13 C          65.4210   92.6403   12.9826 C.ar    1  UNL1        0.1407
     14 N          65.4212   93.2969   11.6340 N.ar    1  UNL1       -0.3356
     15 C          64.6097   92.7133   10.5156 C.ar    1  UNL1        0.1035
     16 C          63.7980   91.4731   10.7458 C.ar    1  UNL1        0.1572
     17 F          62.9865   90.8895    9.6273 F       1  UNL1       -0.2026
     18 C          63.7978   90.8164   12.0944 C.ar    1  UNL1        0.0343
     19 C          64.6093   91.4000   13.2128 C.ar    1  UNL1        0.0392
     20 H          65.9539   94.1109   11.4829 H       1  UNL1        0.1675
     21 C          64.1610   83.6619   15.0903 C.3     1  UNL1        0.1117
     22 C          63.5133   83.2783   11.1937 C.ar    1  UNL1        0.0641
     23 C          63.0004   81.8702   11.1288 C.ar    1  UNL1        0.0158
     24 C          62.8744   81.0593   12.3844 C.ar    1  UNL1        0.0010
     25 C          63.2612   81.6565   13.7050 C.ar    1  UNL1       -0.0037
     26 C          63.7741   83.0647   13.7698 C.ar    1  UNL1       -0.0118
     27 C          63.9002   83.8756   12.5141 C.ar    1  UNL1        0.0121
     28 N          63.6394   84.0893    9.9381 N.pl3   1  UNL1       -0.2187
     29 H          64.3921   83.9312    9.3235 H       1  UNL1        0.1734
     30 C          61.5979   86.1929    9.2998 C.3     1  UNL1        0.1996
     31 S          62.6187   85.1410    9.6189 S.O2    1  UNL1        0.0558
     32 O          62.0067   84.9590   10.9763 O.2     1  UNL1       -0.1544
     33 O          63.2307   85.3232    8.2616 O.2     1  UNL1       -0.1544
@<TRIPOS>BOND
     1    30    31    1
     2    31    32    2
     3    31    33    2
     4    31    28    1
     5    28    22    1
     6    22    23   ar
     7    23    24   ar
     8    24    25   ar
     9    25    26   ar
    10    26    21    1
    11    21     1    1
    12     1     2    2
    13     1     3   am
    14     3     5    1
    15     5     6   ar
    16     6     7   ar
    17     7    10    1
    18    10    11   ar
    19    11    12   ar
    20    12    13   ar
    21    13    14   ar
    22    14    15   ar
    23    15    16   ar
    24    16    17    1
    25    16    18   ar
    26    18    19   ar
    27     7     8   ar
    28     8     9   ar
    29    26    27   ar
    30    27    22   ar
    31     9     5   ar
    32    19    10   ar
    33    19    13    1
    34    28    29    1
    35     3     4    1
    36    14    20    1
@<TRIPOS>MOLECULE
*****
 33 36 0 0 0
SMALL
GASTEIGER

@<TRIPOS>ATOM
      1 C          63.5811   89.7335   15.4319 C.2     1  UNL1        0.2320
      2 O          63.3457   89.2575   14.0290 O.2     1  UNL1       -0.2744
      3 N          63.5497   88.7572   16.5703 N.am    1  UNL1       -0.2639
      4 H          63.7042   89.0696   17.4910 H       1  UNL1        0.1567
      5 C          63.2831   87.3051   16.3058 C.ar    1  UNL1        0.1655
      6 N          63.7542   86.5247   15.1145 N.ar    1  UNL1       -0.2239
      7 C          63.2608   85.1156   15.2586 C.ar    1  UNL1        0.0913
      8 C          62.4846   85.0249   16.5389 C.ar    1  UNL1        0.0573
      9 S          62.4983   86.3781   17.1861 S.2     1  UNL1       -0.0508
     10 C          63.5012   83.9940   14.2920 C.ar    1  UNL1        0.0404
     11 C          63.9037   82.5938   14.6488 C.ar    1  UNL1        0.1021
     12 N          64.0326   81.8102   13.3762 N.ar    1  UNL1       -0.2269
     13 C          63.7099   82.7261   12.2331 C.ar    1  UNL1        0.1407
     14 N          63.6726   82.5055   10.7499 N.ar    1  UNL1       -0.3356
     15 C          63.3069   83.6346    9.8327 C.ar    1  UNL1        0.1035
     16 C          62.9785   84.9844   10.3987 C.ar    1  UNL1        0.1572
     17 F          62.6127   86.1135    9.4814 F       1  UNL1       -0.2026
     18 C          63.0157   85.2050   11.8819 C.ar    1  UNL1        0.0343
     19 C          63.3814   84.0758   12.7991 C.ar    1  UNL1        0.0392
     20 H          63.8882   81.6196   10.3784 H       1  UNL1        0.1675
     21 C          63.8478   91.1857   15.6965 C.3     1  UNL1        0.1117
     22 C          67.0099   92.4011   13.6291 C.ar    1  UNL1        0.0641
     23 C          67.8737   92.9471   14.7271 C.ar    1  UNL1        0.0158
     24 C          67.3956   92.9059   16.1483 C.ar    1  UNL1        0.0010
     25 C          66.0535   92.3188   16.4714 C.ar    1  UNL1       -0.0037
     26 C          65.1897   91.7728   15.3733 C.ar    1  UNL1       -0.0118
     27 C          65.6679   91.8140   13.9521 C.ar    1  UNL1        0.0121
     28 N          67.4880   92.4422   12.2079 N.pl3   1  UNL1       -0.2187
     29 H          68.2800   91.9224   11.9398 H       1  UNL1        0.1734
     30 C          66.0310   94.1082   10.1826 C.3     1  UNL1        0.1996
     31 S          66.7595   93.2752   11.1953 S.O2    1  UNL1        0.0558
     32 O          66.9298   92.1866   10.1774 O.2     1  UNL1       -0.1544
     33 O          66.5892   94.3637   12.2132 O.2     1  UNL1       -0.1544
@<TRIPOS>BOND
     1    30    31    1
     2    31    32    2
     3    31    33    2
     4    31    28    1
     5    28    22    1
     6    22    23   ar
     7    23    24   ar
     8    24    25   ar
     9    25    26   ar
    10    26    21    1
    11    21     1    1
    12     1     2    2
    13     1     3   am
    14     3     5    1
    15     5     6   ar
    16     6     7   ar
    17     7    10    1
    18    10    11   ar
    19    11    12   ar
    20    12    13   ar
    21    13    14   ar
    22    14    15   ar
    23    15    16   ar
    24    16    17    1
    25    16    18   ar
    26    18    19   ar
    27     7     8   ar
    28     8     9   ar
    29    26    27   ar
    30    27    22   ar
    31     9     5   ar
    32    19    10   ar
    33    19    13    1
    34    28    29    1
    35     3     4    1
    36    14    20    1
