@<TRIPOS>MOLECULE
*****
 24 27 0 0 0
SMALL
GASTEIGER

@<TRIPOS>ATOM
      1 C          63.3844   83.4857   11.3678 C.ar    1  UNL1        0.0380
      2 C          63.9850   83.1388   10.0379 C.ar    1  UNL1        0.0026
      3 C          63.8039   84.0618    8.8694 C.ar    1  UNL1        0.0189
      4 C          63.0222   85.3317    9.0310 C.ar    1  UNL1        0.0826
      5 N          62.4216   85.6786   10.3609 N.ar    1  UNL1       -0.2759
      6 C          61.6065   86.8516   10.8189 C.ar    1  UNL1        0.1501
      7 N          61.2839   86.6536   12.2703 N.ar    1  UNL1       -0.1327
      8 N          61.8996   85.3582   12.7094 N.ar    1  UNL1       -0.1290
      9 C          62.6027   84.7556   11.5294 C.ar    1  UNL1        0.1682
     10 C          64.5613   83.5129   13.1326 C.3     1  UNL1        0.0340
     11 C          63.5656   82.5627   12.5363 C.3     1  UNL1        0.1100
     12 C          62.5698   81.6124   11.9400 C.3     1  UNL1        0.0340
     13 O          63.7467   81.6397   13.7047 O.3     1  UNL1       -0.3826
     14 H          62.9709   81.6956   14.2843 H       1  UNL1        0.2107
     15 C          61.1876   88.0179    9.9737 C.3     1  UNL1        0.0716
     16 C          60.4543   88.8158    8.9366 C.3     1  UNL1        0.0120
     17 C          60.1367   87.3623    9.1275 C.3     1  UNL1        0.0120
     18 C          62.0930   89.0785   10.5263 C.ar    1  UNL1       -0.0160
     19 C          62.3746   90.3156    9.7261 C.ar    1  UNL1       -0.0030
     20 C          63.2799   91.3763   10.2786 C.ar    1  UNL1        0.0111
     21 C          63.9037   91.1998   11.6314 C.ar    1  UNL1        0.0577
     22 CL         64.8090   92.2604   12.1839 Cl      1  UNL1       -0.0822
     23 C          63.6221   89.9627   12.4316 C.ar    1  UNL1        0.0111
     24 C          62.7166   88.9020   11.8789 C.ar    1  UNL1       -0.0030
@<TRIPOS>BOND
     1    10    11    1
     2    11    12    1
     3    11    13    1
     4    11     1    1
     5     1     2   ar
     6     2     3   ar
     7     3     4   ar
     8     4     5   ar
     9     5     6   ar
    10     6    15    1
    11    15    18    1
    12    18    19   ar
    13    19    20   ar
    14    20    21   ar
    15    21    22    1
    16    21    23   ar
    17    23    24   ar
    18    15    16    1
    19    16    17    1
    20     6     7   ar
    21     7     8   ar
    22     8     9   ar
    23     9     1   ar
    24     9     5   ar
    25    17    15    1
    26    24    18   ar
    27    13    14    1
@<TRIPOS>MOLECULE
*****
 24 27 0 0 0
SMALL
GASTEIGER

@<TRIPOS>ATOM
      1 C          65.1550   91.8082   12.6471 C.ar    1  UNL1        0.0380
      2 C          65.3161   91.2643   14.0356 C.ar    1  UNL1        0.0026
      3 C          64.3443   90.2495   14.5610 C.ar    1  UNL1        0.0189
      4 C          63.2115   89.7787   13.6979 C.ar    1  UNL1        0.0826
      5 N          63.0505   90.3227   12.3093 N.ar    1  UNL1       -0.2759
      6 C          62.0398   90.0493   11.2352 C.ar    1  UNL1        0.1501
      7 N          62.3869   90.8950   10.0459 N.ar    1  UNL1       -0.1327
      8 N          63.6121   91.6911   10.3851 N.ar    1  UNL1       -0.1290
      9 C          64.0223   91.3374   11.7839 C.ar    1  UNL1        0.1682
     10 C          65.9676   92.2602   10.7404 C.3     1  UNL1        0.0340
     11 C          66.1268   92.8229   12.1217 C.3     1  UNL1        0.1100
     12 C          66.2860   93.3856   13.5030 C.3     1  UNL1        0.0340
     13 O          67.0986   93.8376   11.5963 O.3     1  UNL1       -0.3826
     14 H          66.6707   94.7075   11.5618 H       1  UNL1        0.2107
     15 C          60.8848   89.0973   11.3331 C.3     1  UNL1        0.0716
     16 C          59.5026   88.5812   11.6036 C.3     1  UNL1        0.0120
     17 C          59.8294   90.0218   11.8639 C.3     1  UNL1        0.0120
     18 C          61.5389   87.8421   10.8364 C.ar    1  UNL1       -0.0160
     19 C          61.6959   87.6110    9.3626 C.ar    1  UNL1       -0.0030
     20 C          62.3500   86.3558    8.8659 C.ar    1  UNL1        0.0111
     21 C          62.8470   85.3319    9.8429 C.ar    1  UNL1        0.0577
     22 CL         63.5011   84.0767    9.3462 Cl      1  UNL1       -0.0822
     23 C          62.6900   85.5630   11.3167 C.ar    1  UNL1        0.0111
     24 C          62.0358   86.8183   11.8134 C.ar    1  UNL1       -0.0030
@<TRIPOS>BOND
     1    10    11    1
     2    11    12    1
     3    11    13    1
     4    11     1    1
     5     1     2   ar
     6     2     3   ar
     7     3     4   ar
     8     4     5   ar
     9     5     6   ar
    10     6    15    1
    11    15    18    1
    12    18    19   ar
    13    19    20   ar
    14    20    21   ar
    15    21    22    1
    16    21    23   ar
    17    23    24   ar
    18    15    16    1
    19    16    17    1
    20     6     7   ar
    21     7     8   ar
    22     8     9   ar
    23     9     1   ar
    24     9     5   ar
    25    17    15    1
    26    24    18   ar
    27    13    14    1
@<TRIPOS>MOLECULE
*****
 24 27 0 0 0
SMALL
GASTEIGER

@<TRIPOS>ATOM
      1 C          62.3162   89.4864   11.8970 C.ar    1  UNL1        0.0380
      2 C          63.2012   90.3169   12.7785 C.ar    1  UNL1        0.0026
      3 C          64.1479   89.6504   13.7322 C.ar    1  UNL1        0.0189
      4 C          64.2096   88.1535   13.8044 C.ar    1  UNL1        0.0826
      5 N          63.3246   87.3230   12.9230 N.ar    1  UNL1       -0.2759
      6 C          63.1651   85.8390   12.7733 C.ar    1  UNL1        0.1501
      7 N          62.1198   85.5883   11.7271 N.ar    1  UNL1       -0.1327
      8 N          61.6333   86.9174   11.2302 N.ar    1  UNL1       -0.1290
      9 C          62.3779   87.9895   11.9693 C.ar    1  UNL1        0.1682
     10 C          60.2250   89.8409   11.8613 C.3     1  UNL1        0.0340
     11 C          61.3695   90.1529   10.9433 C.3     1  UNL1        0.1100
     12 C          62.5140   90.4649   10.0252 C.3     1  UNL1        0.0340
     13 O          60.4228   90.8193    9.9896 O.3     1  UNL1       -0.3826
     14 H          60.5317   91.7816   10.0453 H       1  UNL1        0.2107
     15 C          63.9186   84.7899   13.5360 C.3     1  UNL1        0.0716
     16 C          64.7545   84.1531   14.6064 C.3     1  UNL1        0.0120
     17 C          64.4177   85.6126   14.6868 C.3     1  UNL1        0.0120
     18 C          63.6812   83.6030   12.6502 C.ar    1  UNL1       -0.0160
     19 C          64.3583   83.5167   11.3145 C.ar    1  UNL1       -0.0030
     20 C          64.1209   82.3297   10.4286 C.ar    1  UNL1        0.0111
     21 C          63.2064   81.2290   10.8785 C.ar    1  UNL1        0.0577
     22 CL         62.9691   80.0421    9.9927 Cl      1  UNL1       -0.0822
     23 C          62.5294   81.3153   12.2143 C.ar    1  UNL1        0.0111
     24 C          62.7668   82.5024   13.1001 C.ar    1  UNL1       -0.0030
@<TRIPOS>BOND
     1    10    11    1
     2    11    12    1
     3    11    13    1
     4    11     1    1
     5     1     2   ar
     6     2     3   ar
     7     3     4   ar
     8     4     5   ar
     9     5     6   ar
    10     6    15    1
    11    15    18    1
    12    18    19   ar
    13    19    20   ar
    14    20    21   ar
    15    21    22    1
    16    21    23   ar
    17    23    24   ar
    18    15    16    1
    19    16    17    1
    20     6     7   ar
    21     7     8   ar
    22     8     9   ar
    23     9     1   ar
    24     9     5   ar
    25    17    15    1
    26    24    18   ar
    27    13    14    1
@<TRIPOS>MOLECULE
*****
 24 27 0 0 0
SMALL
GASTEIGER

@<TRIPOS>ATOM
      1 C          64.0044   85.9404   14.4049 C.ar    1  UNL1        0.0380
      2 C          64.5452   87.2656   14.8535 C.ar    1  UNL1        0.0026
      3 C          64.2675   88.5004   14.0484 C.ar    1  UNL1        0.0189
      4 C          63.4488   88.4099   12.7947 C.ar    1  UNL1        0.0826
      5 N          62.9080   87.0847   12.3462 N.ar    1  UNL1       -0.2759
      6 C          62.0756   86.6889   11.1628 C.ar    1  UNL1        0.1501
      7 N          61.8389   85.2095   11.2364 N.ar    1  UNL1       -0.1327
      8 N          62.5250   84.6910   12.4654 N.ar    1  UNL1       -0.1290
      9 C          63.1857   85.8499   13.1513 C.ar    1  UNL1        0.1682
     10 C          63.1284   85.0334   16.1108 C.3     1  UNL1        0.0340
     11 C          64.2821   84.7056   15.2100 C.3     1  UNL1        0.1100
     12 C          65.4359   84.3778   14.3092 C.3     1  UNL1        0.0340
     13 O          64.5599   83.4708   16.0151 O.3     1  UNL1       -0.3826
     14 H          64.2732   82.6891   15.5175 H       1  UNL1        0.2107
     15 C          61.5689   87.6107   10.0934 C.3     1  UNL1        0.0716
     16 C          61.0561   88.8558    9.4325 C.3     1  UNL1        0.0120
     17 C          61.3754   88.8618   10.8981 C.3     1  UNL1        0.0120
     18 C          61.5864   86.6799    8.9173 C.ar    1  UNL1       -0.0160
     19 C          62.8534   85.9705    8.5411 C.ar    1  UNL1       -0.0030
     20 C          62.8709   85.0396    7.3651 C.ar    1  UNL1        0.0111
     21 C          61.6214   84.8182    6.5652 C.ar    1  UNL1        0.0577
     22 CL         61.6389   83.8873    5.3891 Cl      1  UNL1       -0.0822
     23 C          60.3544   85.5275    6.9414 C.ar    1  UNL1        0.0111
     24 C          60.3369   86.4584    8.1175 C.ar    1  UNL1       -0.0030
@<TRIPOS>BOND
     1    10    11    1
     2    11    12    1
     3    11    13    1
     4    11     1    1
     5     1     2   ar
     6     2     3   ar
     7     3     4   ar
     8     4     5   ar
     9     5     6   ar
    10     6    15    1
    11    15    18    1
    12    18    19   ar
    13    19    20   ar
    14    20    21   ar
    15    21    22    1
    16    21    23   ar
    17    23    24   ar
    18    15    16    1
    19    16    17    1
    20     6     7   ar
    21     7     8   ar
    22     8     9   ar
    23     9     1   ar
    24     9     5   ar
    25    17    15    1
    26    24    18   ar
    27    13    14    1
@<TRIPOS>MOLECULE
*****
 24 27 0 0 0
SMALL
GASTEIGER

@<TRIPOS>ATOM
      1 C          61.0802   86.4734    8.5254 C.ar    1  UNL1        0.0380
      2 C          61.7977   85.7713    7.4109 C.ar    1  UNL1        0.0026
      3 C          62.8681   84.7678    7.7228 C.ar    1  UNL1        0.0189
      4 C          63.2209   84.4664    9.1492 C.ar    1  UNL1        0.0826
      5 N          62.5034   85.1685   10.2637 N.ar    1  UNL1       -0.2759
      6 C          62.6339   85.0785   11.7553 C.ar    1  UNL1        0.1501
      7 N          61.6442   86.0263   12.3653 N.ar    1  UNL1       -0.1327
      8 N          60.9020   86.7022   11.2506 N.ar    1  UNL1       -0.1290
      9 C          61.4330   86.1720    9.9518 C.ar    1  UNL1        0.1682
     10 C          60.8329   88.5543    8.8551 C.3     1  UNL1        0.0340
     11 C          60.0098   87.4769    8.2135 C.3     1  UNL1        0.1100
     12 C          59.1867   86.3995    7.5719 C.3     1  UNL1        0.0340
     13 O          58.9394   88.4804    7.9016 O.3     1  UNL1       -0.3826
     14 H          58.9552   88.6859    6.9538 H       1  UNL1        0.2107
     15 C          63.5869   84.1956   12.5052 C.3     1  UNL1        0.0716
     16 C          64.5917   83.1153   12.7758 C.3     1  UNL1        0.0120
     17 C          64.0673   83.3205   11.3856 C.3     1  UNL1        0.0120
     18 C          63.4374   84.7640   13.8853 C.ar    1  UNL1       -0.0160
     19 C          64.2743   85.9346   14.3089 C.ar    1  UNL1       -0.0030
     20 C          64.1248   86.5029   15.6890 C.ar    1  UNL1        0.0111
     21 C          63.1386   85.9007   16.6454 C.ar    1  UNL1        0.0577
     22 CL         62.9891   86.4691   18.0255 Cl      1  UNL1       -0.0822
     23 C          62.3017   84.7301   16.2218 C.ar    1  UNL1        0.0111
     24 C          62.4512   84.1618   14.8416 C.ar    1  UNL1       -0.0030
@<TRIPOS>BOND
     1    10    11    1
     2    11    12    1
     3    11    13    1
     4    11     1    1
     5     1     2   ar
     6     2     3   ar
     7     3     4   ar
     8     4     5   ar
     9     5     6   ar
    10     6    15    1
    11    15    18    1
    12    18    19   ar
    13    19    20   ar
    14    20    21   ar
    15    21    22    1
    16    21    23   ar
    17    23    24   ar
    18    15    16    1
    19    16    17    1
    20     6     7   ar
    21     7     8   ar
    22     8     9   ar
    23     9     1   ar
    24     9     5   ar
    25    17    15    1
    26    24    18   ar
    27    13    14    1
@<TRIPOS>MOLECULE
*****
 24 27 0 0 0
SMALL
GASTEIGER

@<TRIPOS>ATOM
      1 C          65.6764   91.7533   13.0937 C.ar    1  UNL1        0.0380
      2 C          65.8470   92.7192   11.9589 C.ar    1  UNL1        0.0026
      3 C          64.9260   92.6575   10.7766 C.ar    1  UNL1        0.0189
      4 C          63.8344   91.6298   10.7290 C.ar    1  UNL1        0.0826
      5 N          63.6638   90.6639   11.8638 N.ar    1  UNL1       -0.2759
      6 C          62.6861   89.5501   12.0955 C.ar    1  UNL1        0.1501
      7 N          63.0029   88.9235   13.4210 N.ar    1  UNL1       -0.1327
      8 N          64.1763   89.6500   14.0086 N.ar    1  UNL1       -0.1290
      9 C          64.5848   90.7256   13.0462 C.ar    1  UNL1        0.1682
     10 C          65.4150   91.9406   15.1905 C.3     1  UNL1        0.0340
     11 C          66.5974   91.8150   14.2761 C.3     1  UNL1        0.1100
     12 C          67.7798   91.6895   13.3616 C.3     1  UNL1        0.0340
     13 O          67.5184   91.8768   15.4584 O.3     1  UNL1       -0.3826
     14 H          67.8773   90.9931   15.6351 H       1  UNL1        0.2107
     15 C          61.5850   89.1357   11.1650 C.3     1  UNL1        0.0716
     16 C          60.3170   89.1970   10.3660 C.3     1  UNL1        0.0120
     17 C          60.7220   90.3614   11.2204 C.3     1  UNL1        0.0120
     18 C          62.0655   87.7662   10.7864 C.ar    1  UNL1       -0.0160
     19 C          62.2256   87.4007    9.3404 C.ar    1  UNL1       -0.0030
     20 C          62.7061   86.0311    8.9618 C.ar    1  UNL1        0.0111
     21 C          63.0265   85.0270   10.0292 C.ar    1  UNL1        0.0577
     22 CL         63.5070   83.6575    9.6506 Cl      1  UNL1       -0.0822
     23 C          62.8665   85.3925   11.4751 C.ar    1  UNL1        0.0111
     24 C          62.3860   86.7622   11.8537 C.ar    1  UNL1       -0.0030
@<TRIPOS>BOND
     1    10    11    1
     2    11    12    1
     3    11    13    1
     4    11     1    1
     5     1     2   ar
     6     2     3   ar
     7     3     4   ar
     8     4     5   ar
     9     5     6   ar
    10     6    15    1
    11    15    18    1
    12    18    19   ar
    13    19    20   ar
    14    20    21   ar
    15    21    22    1
    16    21    23   ar
    17    23    24   ar
    18    15    16    1
    19    16    17    1
    20     6     7   ar
    21     7     8   ar
    22     8     9   ar
    23     9     1   ar
    24     9     5   ar
    25    17    15    1
    26    24    18   ar
    27    13    14    1
@<TRIPOS>MOLECULE
*****
 24 27 0 0 0
SMALL
GASTEIGER

@<TRIPOS>ATOM
      1 C          63.0737   84.7027   12.9377 C.ar    1  UNL1        0.0380
      2 C          62.3477   84.4433   11.6511 C.ar    1  UNL1        0.0026
      3 C          61.9943   85.5859   10.7458 C.ar    1  UNL1        0.0189
      4 C          62.3669   86.9879   11.1271 C.ar    1  UNL1        0.0826
      5 N          63.0929   87.2473   12.4138 N.ar    1  UNL1       -0.2759
      6 C          63.5870   88.5127   13.0500 C.ar    1  UNL1        0.1501
      7 N          64.2458   88.1522   14.3484 N.ar    1  UNL1       -0.1327
      8 N          64.1588   86.6640   14.5147 N.ar    1  UNL1       -0.1290
      9 C          63.4463   86.1047   13.3191 C.ar    1  UNL1        0.1682
     10 C          64.5803   83.2094   12.9502 C.3     1  UNL1        0.0340
     11 C          63.4271   83.5601   13.8431 C.3     1  UNL1        0.1100
     12 C          62.2739   83.9108   14.7359 C.3     1  UNL1        0.0340
     13 O          63.7805   82.4175   14.7484 O.3     1  UNL1       -0.3826
     14 H          64.1883   82.7612   15.5586 H       1  UNL1        0.2107
     15 C          63.4469   89.8958   12.4865 C.3     1  UNL1        0.0716
     16 C          63.0068   91.0144   11.5893 C.3     1  UNL1        0.0120
     17 C          62.5344   89.6146   11.3296 C.3     1  UNL1        0.0120
     18 C          64.3107   90.6574   13.4477 C.ar    1  UNL1       -0.0160
     19 C          65.6266   91.2157   12.9931 C.ar    1  UNL1       -0.0030
     20 C          66.4904   91.9773   13.9542 C.ar    1  UNL1        0.0111
     21 C          66.0383   92.1805   15.3700 C.ar    1  UNL1        0.0577
     22 CL         66.9021   92.9421   16.3311 Cl      1  UNL1       -0.0822
     23 C          64.7224   91.6221   15.8246 C.ar    1  UNL1        0.0111
     24 C          63.8586   90.8605   14.8634 C.ar    1  UNL1       -0.0030
@<TRIPOS>BOND
     1    10    11    1
     2    11    12    1
     3    11    13    1
     4    11     1    1
     5     1     2   ar
     6     2     3   ar
     7     3     4   ar
     8     4     5   ar
     9     5     6   ar
    10     6    15    1
    11    15    18    1
    12    18    19   ar
    13    19    20   ar
    14    20    21   ar
    15    21    22    1
    16    21    23   ar
    17    23    24   ar
    18    15    16    1
    19    16    17    1
    20     6     7   ar
    21     7     8   ar
    22     8     9   ar
    23     9     1   ar
    24     9     5   ar
    25    17    15    1
    26    24    18   ar
    27    13    14    1
@<TRIPOS>MOLECULE
*****
 24 27 0 0 0
SMALL
GASTEIGER

@<TRIPOS>ATOM
      1 C          64.2112   90.6124   13.3463 C.ar    1  UNL1        0.0380
      2 C          63.7812   91.5230   12.2346 C.ar    1  UNL1        0.0026
      3 C          63.0399   90.9678   11.0547 C.ar    1  UNL1        0.0189
      4 C          62.7285   89.5021   10.9865 C.ar    1  UNL1        0.0826
      5 N          63.1585   88.5916   12.0982 N.ar    1  UNL1       -0.2759
      6 C          62.9945   87.1152   12.3067 C.ar    1  UNL1        0.1501
      7 N          63.6345   86.7579   13.6154 N.ar    1  UNL1       -0.1327
      8 N          64.1940   88.0135   14.2158 N.ar    1  UNL1       -0.1290
      9 C          63.8998   89.1467   13.2781 C.ar    1  UNL1        0.1682
     10 C          63.7994   90.8131   15.4176 C.3     1  UNL1        0.0340
     11 C          64.9526   91.1676   14.5262 C.3     1  UNL1        0.1100
     12 C          66.1057   91.5221   13.6349 C.3     1  UNL1        0.0340
     13 O          65.6939   91.7228   15.7061 O.3     1  UNL1       -0.3826
     14 H          66.4024   91.1108   15.9600 H       1  UNL1        0.2107
     15 C          62.3106   86.1633   11.3707 C.3     1  UNL1        0.0716
     16 C          61.4707   85.6652   10.2320 C.3     1  UNL1        0.0120
     17 C          61.6241   87.1395   10.4619 C.3     1  UNL1        0.0120
     18 C          62.7594   84.8564   11.9543 C.ar    1  UNL1       -0.0160
     19 C          62.2664   84.4295   13.3051 C.ar    1  UNL1       -0.0030
     20 C          62.7153   83.1227   13.8887 C.ar    1  UNL1        0.0111
     21 C          63.6572   82.2428   13.1216 C.ar    1  UNL1        0.0577
     22 CL         64.1061   80.9359   13.7052 Cl      1  UNL1       -0.0822
     23 C          64.1503   82.6697   11.7708 C.ar    1  UNL1        0.0111
     24 C          63.7014   83.9766   11.1871 C.ar    1  UNL1       -0.0030
@<TRIPOS>BOND
     1    10    11    1
     2    11    12    1
     3    11    13    1
     4    11     1    1
     5     1     2   ar
     6     2     3   ar
     7     3     4   ar
     8     4     5   ar
     9     5     6   ar
    10     6    15    1
    11    15    18    1
    12    18    19   ar
    13    19    20   ar
    14    20    21   ar
    15    21    22    1
    16    21    23   ar
    17    23    24   ar
    18    15    16    1
    19    16    17    1
    20     6     7   ar
    21     7     8   ar
    22     8     9   ar
    23     9     1   ar
    24     9     5   ar
    25    17    15    1
    26    24    18   ar
    27    13    14    1
@<TRIPOS>MOLECULE
*****
 24 27 0 0 0
SMALL
GASTEIGER

@<TRIPOS>ATOM
      1 C          61.8585   86.8976   10.3834 C.ar    1  UNL1        0.0380
      2 C          62.3775   85.7177   11.1505 C.ar    1  UNL1        0.0026
      3 C          63.1884   85.9298   12.3945 C.ar    1  UNL1        0.0189
      4 C          63.4803   87.3217   12.8714 C.ar    1  UNL1        0.0826
      5 N          62.9613   88.5015   12.1042 N.ar    1  UNL1       -0.2759
      6 C          63.0871   89.9792   12.3292 C.ar    1  UNL1        0.1501
      7 N          62.3540   90.6804   11.2243 N.ar    1  UNL1       -0.1327
      8 N          61.7751   89.6361   10.3164 N.ar    1  UNL1       -0.1290
      9 C          62.1504   88.2895   10.8602 C.ar    1  UNL1        0.1682
     10 C          62.2035   85.9675    8.5083 C.3     1  UNL1        0.0340
     11 C          61.0476   86.6855    9.1394 C.3     1  UNL1        0.1100
     12 C          59.8917   87.4036    9.7705 C.3     1  UNL1        0.0340
     13 O          60.2367   86.4735    7.8954 O.3     1  UNL1       -0.3826
     14 H          59.5729   85.7846    8.0557 H       1  UNL1        0.2107
     15 C          63.8178   90.6397   13.4605 C.3     1  UNL1        0.0716
     16 C          64.2623   90.9556   14.8579 C.3     1  UNL1        0.0120
     17 C          63.2476   89.8769   14.6195 C.3     1  UNL1        0.0120
     18 C          64.6418   91.6318   12.6945 C.ar    1  UNL1       -0.0160
     19 C          64.4964   91.7365   11.2052 C.ar    1  UNL1       -0.0030
     20 C          65.3204   92.7287   10.4392 C.ar    1  UNL1        0.0111
     21 C          66.2897   93.6160   11.1625 C.ar    1  UNL1        0.0577
     22 CL         67.1136   94.6082   10.3965 Cl      1  UNL1       -0.0822
     23 C          66.4350   93.5113   12.6518 C.ar    1  UNL1        0.0111
     24 C          65.6110   92.5191   13.4178 C.ar    1  UNL1       -0.0030
@<TRIPOS>BOND
     1    10    11    1
     2    11    12    1
     3    11    13    1
     4    11     1    1
     5     1     2   ar
     6     2     3   ar
     7     3     4   ar
     8     4     5   ar
     9     5     6   ar
    10     6    15    1
    11    15    18    1
    12    18    19   ar
    13    19    20   ar
    14    20    21   ar
    15    21    22    1
    16    21    23   ar
    17    23    24   ar
    18    15    16    1
    19    16    17    1
    20     6     7   ar
    21     7     8   ar
    22     8     9   ar
    23     9     1   ar
    24     9     5   ar
    25    17    15    1
    26    24    18   ar
    27    13    14    1
