@<TRIPOS>MOLECULE
*****
 37 41 0 0 0
SMALL
GASTEIGER

@<TRIPOS>ATOM
      1 C          65.0849   91.4078   13.9090 C.3     1  UNL1        0.0761
      2 C          63.7382   90.5638   15.9642 C.ar    1  UNL1        0.1351
      3 C          63.1730   89.4331   16.7717 C.ar    1  UNL1        0.0366
      4 C          63.3894   88.0155   16.3314 C.ar    1  UNL1        0.0030
      5 C          62.8243   86.8848   17.1389 C.ar    1  UNL1        0.0006
      6 C          63.0407   85.4674   16.6986 C.ar    1  UNL1        0.0067
      7 C          63.8223   85.1806   15.4508 C.ar    1  UNL1        0.0346
      8 BR         64.0387   83.7630   15.0106 Br      1  UNL1       -0.0490
      9 C          64.3874   86.3113   14.6434 C.ar    1  UNL1        0.0067
     10 C          64.1710   87.7288   15.0836 C.ar    1  UNL1        0.0004
     11 C          64.7362   88.8596   14.2762 C.ar    1  UNL1       -0.0009
     12 C          64.5197   90.2770   14.7164 C.ar    1  UNL1        0.0181
     13 C          64.5410   92.6619   17.2694 C.3     1  UNL1        0.2525
     14 O          63.5218   91.9814   16.4045 O.3     1  UNL1       -0.4717
     15 C          66.2639   92.1801   14.4224 C.ar    1  UNL1       -0.0157
     16 C          66.3421   93.6621   14.2047 C.ar    1  UNL1       -0.0039
     17 C          67.5211   94.4344   14.7181 C.ar    1  UNL1       -0.0003
     18 C          68.6218   93.7246   15.4493 C.ar    1  UNL1       -0.0000
     19 C          68.5436   92.2425   15.6670 C.ar    1  UNL1       -0.0003
     20 C          67.3646   91.4703   15.1536 C.ar    1  UNL1       -0.0039
     21 C          64.4711   91.7663   12.5881 C.3     1  UNL1        0.1186
     22 O          63.1065   91.4956   13.1488 O.3     1  UNL1       -0.3819
     23 H          63.0813   91.7620   14.0812 H       1  UNL1        0.2107
     24 C          65.8357   92.0370   12.0274 C.ar    1  UNL1        0.0369
     25 C          66.9643   91.0903   12.3107 C.ar    1  UNL1        0.0010
     26 C          68.3290   91.3610   11.7500 C.ar    1  UNL1       -0.0000
     27 C          68.5651   92.5783   10.9060 C.ar    1  UNL1        0.0031
     28 C          67.4366   93.5250   10.6227 C.ar    1  UNL1        0.0375
     29 C          67.3683   94.7969    9.8305 C.ar    1  UNL1        0.0437
     30 C          65.9614   95.3123    9.9016 C.ar    1  UNL1        0.1796
     31 O          65.1602   94.3590   10.7378 O.2     1  UNL1       -0.4507
     32 C          66.0719   93.2543   11.1835 C.ar    1  UNL1        0.1436
     33 C          63.8573   92.1248   11.2673 C.3     1  UNL1        0.0492
     34 C          63.3451   91.0452   10.3605 C.3     1  UNL1        0.0750
     35 N          62.2630   90.1199   10.8328 N.3     1  UNL1       -0.2702
     36 C          62.6154   88.7589   11.3557 C.3     1  UNL1        0.0897
     37 C          60.8286   90.5555   10.7820 C.3     1  UNL1        0.0897
@<TRIPOS>BOND
     1    13    14    1
     2    14     2    1
     3     2     3   ar
     4     3     4   ar
     5     4     5   ar
     6     5     6   ar
     7     6     7   ar
     8     7     8    1
     9     7     9   ar
    10     9    10   ar
    11    10    11   ar
    12    11    12   ar
    13     1    12    1
    14     1    15    1
    15    15    16   ar
    16    16    17   ar
    17    17    18   ar
    18    18    19   ar
    19    19    20   ar
    20     1    21    1
    21    21    22    1
    22    21    33    1
    23    33    34    1
    24    34    35    1
    25    35    36    1
    26    35    37    1
    27    21    24    1
    28    24    25   ar
    29    25    26   ar
    30    26    27   ar
    31    27    28   ar
    32    28    29   ar
    33    29    30   ar
    34    30    31   ar
    35    31    32   ar
    36    12     2   ar
    37    20    15   ar
    38    32    24   ar
    39    10     4   ar
    40    32    28   ar
    41    22    23    1
@<TRIPOS>MOLECULE
*****
 37 41 0 0 0
SMALL
GASTEIGER

@<TRIPOS>ATOM
      1 C          61.6562   94.6804   -1.1271 C.3     1  UNL1        0.0761
      2 C          63.0752   93.3804    0.6184 C.ar    1  UNL1        0.1351
      3 C          63.1664   92.5959    1.8936 C.ar    1  UNL1        0.0366
      4 C          61.9297   92.3268    2.6987 C.ar    1  UNL1        0.0030
      5 C          62.0209   91.5423    3.9739 C.ar    1  UNL1        0.0006
      6 C          60.7842   91.2732    4.7789 C.ar    1  UNL1        0.0067
      7 C          59.4563   91.7886    4.3087 C.ar    1  UNL1        0.0346
      8 BR         58.2195   91.5195    5.1138 Br      1  UNL1       -0.0490
      9 C          59.3651   92.5731    3.0335 C.ar    1  UNL1        0.0067
     10 C          60.6018   92.8422    2.2285 C.ar    1  UNL1        0.0004
     11 C          60.5106   93.6268    0.9532 C.ar    1  UNL1       -0.0009
     12 C          61.7473   93.8959    0.1482 C.ar    1  UNL1        0.0181
     13 C          65.3472   94.6063    0.3260 C.3     1  UNL1        0.2525
     14 O          64.3120   93.6496   -0.1867 O.3     1  UNL1       -0.4717
     15 C          62.6405   94.4332   -2.2316 C.ar    1  UNL1       -0.0157
     16 C          62.7133   93.0842   -2.8834 C.ar    1  UNL1       -0.0039
     17 C          63.6976   92.8371   -3.9880 C.ar    1  UNL1       -0.0003
     18 C          64.6091   93.9389   -4.4408 C.ar    1  UNL1       -0.0000
     19 C          64.5363   95.2880   -3.7890 C.ar    1  UNL1       -0.0003
     20 C          63.5520   95.5352   -2.6845 C.ar    1  UNL1       -0.0039
     21 C          60.5808   95.7121   -1.2977 C.3     1  UNL1        0.1186
     22 O          61.2326   96.5648   -0.2499 O.3     1  UNL1       -0.3819
     23 H          62.1962   96.4729   -0.3116 H       1  UNL1        0.2107
     24 C          59.9290   94.8594   -2.3456 C.ar    1  UNL1        0.0369
     25 C          59.1696   93.6291   -1.9457 C.ar    1  UNL1        0.0010
     26 C          58.5178   92.7764   -2.9935 C.ar    1  UNL1       -0.0000
     27 C          58.6255   93.1538   -4.4413 C.ar    1  UNL1        0.0031
     28 C          59.3849   94.3840   -4.8412 C.ar    1  UNL1        0.0375
     29 C          59.6596   95.0032   -6.1795 C.ar    1  UNL1        0.0437
     30 C          60.4811   96.2387   -5.9588 C.ar    1  UNL1        0.1796
     31 O          60.7142   96.3830   -4.4840 O.2     1  UNL1       -0.4507
     32 C          60.0367   95.2368   -3.7933 C.ar    1  UNL1        0.1436
     33 C          59.5054   96.7437   -1.4684 C.3     1  UNL1        0.0492
     34 C          58.1551   96.5287   -0.8515 C.3     1  UNL1        0.0750
     35 N          56.9342   96.4696   -1.7210 N.3     1  UNL1       -0.2702
     36 C          57.0243   96.8560   -3.1676 C.3     1  UNL1        0.0897
     37 C          55.6233   96.0241   -1.1439 C.3     1  UNL1        0.0897
@<TRIPOS>BOND
     1    13    14    1
     2    14     2    1
     3     2     3   ar
     4     3     4   ar
     5     4     5   ar
     6     5     6   ar
     7     6     7   ar
     8     7     8    1
     9     7     9   ar
    10     9    10   ar
    11    10    11   ar
    12    11    12   ar
    13     1    12    1
    14     1    15    1
    15    15    16   ar
    16    16    17   ar
    17    17    18   ar
    18    18    19   ar
    19    19    20   ar
    20     1    21    1
    21    21    22    1
    22    21    33    1
    23    33    34    1
    24    34    35    1
    25    35    36    1
    26    35    37    1
    27    21    24    1
    28    24    25   ar
    29    25    26   ar
    30    26    27   ar
    31    27    28   ar
    32    28    29   ar
    33    29    30   ar
    34    30    31   ar
    35    31    32   ar
    36    12     2   ar
    37    20    15   ar
    38    32    24   ar
    39    10     4   ar
    40    32    28   ar
    41    22    23    1
@<TRIPOS>MOLECULE
*****
 37 41 0 0 0
SMALL
GASTEIGER

@<TRIPOS>ATOM
      1 C          58.9078   94.0173   -3.1215 C.3     1  UNL1        0.0761
      2 C          61.2437   93.4651   -2.1271 C.ar    1  UNL1        0.1351
      3 C          62.1017   93.0957   -0.9535 C.ar    1  UNL1        0.0366
      4 C          61.4816   92.9090    0.3996 C.ar    1  UNL1        0.0030
      5 C          62.3396   92.5396    1.5732 C.ar    1  UNL1        0.0006
      6 C          61.7195   92.3530    2.9262 C.ar    1  UNL1        0.0067
      7 C          60.2415   92.5358    3.1056 C.ar    1  UNL1        0.0346
      8 BR         59.6215   92.3491    4.4587 Br      1  UNL1       -0.0490
      9 C          59.3836   92.9052    1.9320 C.ar    1  UNL1        0.0067
     10 C          60.0037   93.0918    0.5790 C.ar    1  UNL1        0.0004
     11 C          59.1457   93.4612   -0.5948 C.ar    1  UNL1       -0.0009
     12 C          59.7658   93.6479   -1.9478 C.ar    1  UNL1        0.0181
     13 C          63.1623   92.9770   -3.8097 C.3     1  UNL1        0.2525
     14 O          61.8638   93.6517   -3.4802 O.3     1  UNL1       -0.4717
     15 C          57.9181   93.0309   -3.6670 C.ar    1  UNL1       -0.0157
     16 C          56.9977   92.2990   -2.7358 C.ar    1  UNL1       -0.0039
     17 C          56.0079   91.3127   -3.2813 C.ar    1  UNL1       -0.0003
     18 C          55.9386   91.0583   -4.7579 C.ar    1  UNL1       -0.0000
     19 C          56.8590   91.7903   -5.6892 C.ar    1  UNL1       -0.0003
     20 C          57.8488   92.7766   -5.1437 C.ar    1  UNL1       -0.0039
     21 C          59.0397   95.3730   -3.7497 C.3     1  UNL1        0.1186
     22 O          60.1993   94.8825   -4.5648 O.3     1  UNL1       -0.3819
     23 H          60.0523   93.9559   -4.8114 H       1  UNL1        0.2107
     24 C          57.8800   95.8635   -2.9345 C.ar    1  UNL1        0.0369
     25 C          58.1033   96.3652   -1.5386 C.ar    1  UNL1        0.0010
     26 C          56.9437   96.8557   -0.7234 C.ar    1  UNL1       -0.0000
     27 C          55.5607   96.8445   -1.3040 C.ar    1  UNL1        0.0031
     28 C          55.3373   96.3428   -2.6998 C.ar    1  UNL1        0.0375
     29 C          54.0969   96.2127   -3.5332 C.ar    1  UNL1        0.0437
     30 C          54.4900   95.6418   -4.8635 C.ar    1  UNL1        0.1796
     31 O          55.9733   95.4190   -4.8523 O.2     1  UNL1       -0.4507
     32 C          56.4970   95.8523   -3.5151 C.ar    1  UNL1        0.1436
     33 C          59.1715   96.7287   -4.3778 C.3     1  UNL1        0.0492
     34 C          59.6483   96.8558   -5.7943 C.3     1  UNL1        0.0750
     35 N          58.8656   96.2265   -6.9085 N.3     1  UNL1       -0.2702
     36 C          57.5840   96.8532   -7.3719 C.3     1  UNL1        0.0897
     37 C          59.3644   94.9704   -7.5592 C.3     1  UNL1        0.0897
@<TRIPOS>BOND
     1    13    14    1
     2    14     2    1
     3     2     3   ar
     4     3     4   ar
     5     4     5   ar
     6     5     6   ar
     7     6     7   ar
     8     7     8    1
     9     7     9   ar
    10     9    10   ar
    11    10    11   ar
    12    11    12   ar
    13     1    12    1
    14     1    15    1
    15    15    16   ar
    16    16    17   ar
    17    17    18   ar
    18    18    19   ar
    19    19    20   ar
    20     1    21    1
    21    21    22    1
    22    21    33    1
    23    33    34    1
    24    34    35    1
    25    35    36    1
    26    35    37    1
    27    21    24    1
    28    24    25   ar
    29    25    26   ar
    30    26    27   ar
    31    27    28   ar
    32    28    29   ar
    33    29    30   ar
    34    30    31   ar
    35    31    32   ar
    36    12     2   ar
    37    20    15   ar
    38    32    24   ar
    39    10     4   ar
    40    32    28   ar
    41    22    23    1
@<TRIPOS>MOLECULE
*****
 37 41 0 0 0
SMALL
GASTEIGER

@<TRIPOS>ATOM
      1 C          59.5990   94.8330   -1.2399 C.3     1  UNL1        0.0761
      2 C          61.7112   93.9296   -0.0265 C.ar    1  UNL1        0.1351
      3 C          62.3354   93.2072    1.1303 C.ar    1  UNL1        0.0366
      4 C          61.4717   92.6657    2.2308 C.ar    1  UNL1        0.0030
      5 C          62.0960   91.9433    3.3876 C.ar    1  UNL1        0.0006
      6 C          61.2323   91.4018    4.4880 C.ar    1  UNL1        0.0067
      7 C          59.7443   91.5828    4.4315 C.ar    1  UNL1        0.0346
      8 BR         58.8806   91.0413    5.5319 Br      1  UNL1       -0.0490
      9 C          59.1201   92.3052    3.2746 C.ar    1  UNL1        0.0067
     10 C          59.9838   92.8467    2.1743 C.ar    1  UNL1        0.0004
     11 C          59.3595   93.5691    1.0174 C.ar    1  UNL1       -0.0009
     12 C          60.2232   94.1106   -0.0830 C.ar    1  UNL1        0.0181
     13 C          63.7139   95.3915   -0.8023 C.3     1  UNL1        0.2525
     14 O          62.5749   94.4711   -1.1269 O.3     1  UNL1       -0.4717
     15 C          60.4103   95.1263   -2.4670 C.ar    1  UNL1       -0.0157
     16 C          60.8430   94.0059   -3.3655 C.ar    1  UNL1       -0.0039
     17 C          61.6544   94.2992   -4.5926 C.ar    1  UNL1       -0.0003
     18 C          62.0331   95.7129   -4.9211 C.ar    1  UNL1       -0.0000
     19 C          61.6004   96.8334   -4.0225 C.ar    1  UNL1       -0.0003
     20 C          60.7890   96.5401   -2.7955 C.ar    1  UNL1       -0.0039
     21 C          58.1634   95.2622   -1.1698 C.3     1  UNL1        0.1186
     22 O          58.5288   96.3216   -0.1728 O.3     1  UNL1       -0.3819
     23 H          59.4055   96.6778   -0.3862 H       1  UNL1        0.2107
     24 C          57.7980   94.2027   -2.1667 C.ar    1  UNL1        0.0369
     25 C          57.5073   92.8057   -1.7041 C.ar    1  UNL1        0.0010
     26 C          57.1418   91.7463   -2.7011 C.ar    1  UNL1       -0.0000
     27 C          57.0671   92.0838   -4.1607 C.ar    1  UNL1        0.0031
     28 C          57.3578   93.4807   -4.6234 C.ar    1  UNL1        0.0375
     29 C          57.3634   94.1056   -5.9869 C.ar    1  UNL1        0.0437
     30 C          57.7323   95.5514   -5.8327 C.ar    1  UNL1        0.1796
     31 O          57.9547   95.8199   -4.3738 O.2     1  UNL1       -0.4507
     32 C          57.7232   94.5402   -3.6264 C.ar    1  UNL1        0.1436
     33 C          56.7278   95.6913   -1.0996 C.3     1  UNL1        0.0492
     34 C          56.2416   96.8257   -1.9521 C.3     1  UNL1        0.0750
     35 N          54.8291   96.8326   -2.4570 N.3     1  UNL1       -0.2702
     36 C          53.6856   96.8163   -1.4863 C.3     1  UNL1        0.0897
     37 C          54.5601   96.8558   -3.9325 C.3     1  UNL1        0.0897
@<TRIPOS>BOND
     1    13    14    1
     2    14     2    1
     3     2     3   ar
     4     3     4   ar
     5     4     5   ar
     6     5     6   ar
     7     6     7   ar
     8     7     8    1
     9     7     9   ar
    10     9    10   ar
    11    10    11   ar
    12    11    12   ar
    13     1    12    1
    14     1    15    1
    15    15    16   ar
    16    16    17   ar
    17    17    18   ar
    18    18    19   ar
    19    19    20   ar
    20     1    21    1
    21    21    22    1
    22    21    33    1
    23    33    34    1
    24    34    35    1
    25    35    36    1
    26    35    37    1
    27    21    24    1
    28    24    25   ar
    29    25    26   ar
    30    26    27   ar
    31    27    28   ar
    32    28    29   ar
    33    29    30   ar
    34    30    31   ar
    35    31    32   ar
    36    12     2   ar
    37    20    15   ar
    38    32    24   ar
    39    10     4   ar
    40    32    28   ar
    41    22    23    1
@<TRIPOS>MOLECULE
*****
 37 41 0 0 0
SMALL
GASTEIGER

@<TRIPOS>ATOM
      1 C          60.5891   94.7732   -0.8362 C.3     1  UNL1        0.0761
      2 C          62.2842   93.5441    0.7020 C.ar    1  UNL1        0.1351
      3 C          62.5709   92.7234    1.9244 C.ar    1  UNL1        0.0366
      4 C          61.4493   92.3110    2.8309 C.ar    1  UNL1        0.0030
      5 C          61.7360   91.4903    4.0533 C.ar    1  UNL1        0.0006
      6 C          60.6144   91.0779    4.9598 C.ar    1  UNL1        0.0067
      7 C          59.2060   91.4862    4.6440 C.ar    1  UNL1        0.0346
      8 BR         58.0843   91.0738    5.5506 Br      1  UNL1       -0.0490
      9 C          58.9193   92.3069    3.4216 C.ar    1  UNL1        0.0067
     10 C          60.0409   92.7193    2.5151 C.ar    1  UNL1        0.0004
     11 C          59.7542   93.5401    1.2927 C.ar    1  UNL1       -0.0009
     12 C          60.8758   93.9525    0.3862 C.ar    1  UNL1        0.0181
     13 C          64.8224   93.6149    0.1516 C.3     1  UNL1        0.2525
     14 O          63.4059   93.9566   -0.2046 O.3     1  UNL1       -0.4717
     15 C          61.5318   94.7362   -2.0025 C.ar    1  UNL1       -0.0157
     16 C          62.2804   95.9733   -2.4013 C.ar    1  UNL1       -0.0039
     17 C          63.2230   95.9363   -3.5675 C.ar    1  UNL1       -0.0003
     18 C          63.4170   94.6622   -4.3349 C.ar    1  UNL1       -0.0000
     19 C          62.6683   93.4250   -3.9361 C.ar    1  UNL1       -0.0003
     20 C          61.7257   93.4620   -2.7699 C.ar    1  UNL1       -0.0039
     21 C          59.3599   95.6309   -0.8924 C.3     1  UNL1        0.1186
     22 O          59.7751   96.3093    0.3793 O.3     1  UNL1       -0.3819
     23 H          60.7415   96.3893    0.4025 H       1  UNL1        0.2107
     24 C          58.9446   94.9526   -2.1641 C.ar    1  UNL1        0.0369
     25 C          59.4270   95.4750   -3.4849 C.ar    1  UNL1        0.0010
     26 C          59.0117   94.7967   -4.7567 C.ar    1  UNL1       -0.0000
     27 C          58.1142   93.5958   -4.7077 C.ar    1  UNL1        0.0031
     28 C          57.6319   93.0734   -3.3870 C.ar    1  UNL1        0.0375
     29 C          56.7459   91.9175   -3.0278 C.ar    1  UNL1        0.0437
     30 C          56.6135   91.8815   -1.5341 C.ar    1  UNL1        0.1796
     31 O          57.4177   93.0151   -0.9700 O.2     1  UNL1       -0.4507
     32 C          58.0471   93.7517   -2.1151 C.ar    1  UNL1        0.1436
     33 C          58.1306   96.4886   -0.9485 C.3     1  UNL1        0.0492
     34 C          57.5304   96.8533   -2.2740 C.3     1  UNL1        0.0750
     35 N          56.0506   96.7301   -2.4865 N.3     1  UNL1       -0.2702
     36 C          55.1141   96.8342   -1.3194 C.3     1  UNL1        0.0897
     37 C          55.5074   96.5029   -3.8661 C.3     1  UNL1        0.0897
@<TRIPOS>BOND
     1    13    14    1
     2    14     2    1
     3     2     3   ar
     4     3     4   ar
     5     4     5   ar
     6     5     6   ar
     7     6     7   ar
     8     7     8    1
     9     7     9   ar
    10     9    10   ar
    11    10    11   ar
    12    11    12   ar
    13     1    12    1
    14     1    15    1
    15    15    16   ar
    16    16    17   ar
    17    17    18   ar
    18    18    19   ar
    19    19    20   ar
    20     1    21    1
    21    21    22    1
    22    21    33    1
    23    33    34    1
    24    34    35    1
    25    35    36    1
    26    35    37    1
    27    21    24    1
    28    24    25   ar
    29    25    26   ar
    30    26    27   ar
    31    27    28   ar
    32    28    29   ar
    33    29    30   ar
    34    30    31   ar
    35    31    32   ar
    36    12     2   ar
    37    20    15   ar
    38    32    24   ar
    39    10     4   ar
    40    32    28   ar
    41    22    23    1
@<TRIPOS>MOLECULE
*****
 37 41 0 0 0
SMALL
GASTEIGER

@<TRIPOS>ATOM
      1 C          62.8563   89.5982   12.7765 C.3     1  UNL1        0.0761
      2 C          64.1539   91.5446   13.9069 C.ar    1  UNL1        0.1351
      3 C          65.0771   92.7224   13.8048 C.ar    1  UNL1        0.0366
      4 C          65.6262   93.1315   12.4702 C.ar    1  UNL1        0.0030
      5 C          66.5495   94.3092   12.3681 C.ar    1  UNL1        0.0006
      6 C          67.0985   94.7183   11.0335 C.ar    1  UNL1        0.0067
      7 C          66.7242   93.9497    9.8010 C.ar    1  UNL1        0.0346
      8 BR         67.2733   94.3588    8.4663 Br      1  UNL1       -0.0490
      9 C          65.8009   92.7720    9.9030 C.ar    1  UNL1        0.0067
     10 C          65.2519   92.3629   11.2376 C.ar    1  UNL1        0.0004
     11 C          64.3286   91.1851   11.3398 C.ar    1  UNL1       -0.0009
     12 C          63.7796   90.7760   12.6744 C.ar    1  UNL1        0.0181
     13 C          64.2084   91.6834   16.5007 C.3     1  UNL1        0.2525
     14 O          63.6048   91.1355   15.2415 O.3     1  UNL1       -0.4717
     15 C          61.3993   89.7575   12.4572 C.ar    1  UNL1       -0.0157
     16 C          60.9709   90.6614   11.3394 C.ar    1  UNL1       -0.0039
     17 C          59.5140   90.8207   11.0201 C.ar    1  UNL1       -0.0003
     18 C          58.4854   90.0761   11.8186 C.ar    1  UNL1       -0.0000
     19 C          58.9138   89.1722   12.9365 C.ar    1  UNL1       -0.0003
     20 C          60.3707   89.0129   13.2558 C.ar    1  UNL1       -0.0039
     21 C          63.3899   88.2612   13.1979 C.3     1  UNL1        0.1186
     22 O          63.8189   88.8462   14.5107 O.3     1  UNL1       -0.3819
     23 H          63.1763   89.5164   14.7915 H       1  UNL1        0.2107
     24 C          62.9608   87.6762   11.8850 C.ar    1  UNL1        0.0369
     25 C          62.6959   88.5754   10.7140 C.ar    1  UNL1        0.0010
     26 C          62.2669   87.9904    9.4011 C.ar    1  UNL1       -0.0000
     27 C          62.1027   86.5061    9.2593 C.ar    1  UNL1        0.0031
     28 C          62.3675   85.6069   10.4302 C.ar    1  UNL1        0.0375
     29 C          62.2903   84.1175   10.5897 C.ar    1  UNL1        0.0437
     30 C          62.6715   83.7819   12.0011 C.ar    1  UNL1        0.1796
     31 O          62.9845   85.0640   12.7140 O.2     1  UNL1       -0.4507
     32 C          62.7966   86.1920   11.7432 C.ar    1  UNL1        0.1436
     33 C          63.9235   86.9242   13.6193 C.3     1  UNL1        0.0492
     34 C          64.3562   86.7027   15.0383 C.3     1  UNL1        0.0750
     35 N          63.3812   86.1675   16.0449 N.3     1  UNL1       -0.2702
     36 C          62.9517   87.0217   17.2007 C.3     1  UNL1        0.0897
     37 C          62.8357   84.7783   15.8955 C.3     1  UNL1        0.0897
@<TRIPOS>BOND
     1    13    14    1
     2    14     2    1
     3     2     3   ar
     4     3     4   ar
     5     4     5   ar
     6     5     6   ar
     7     6     7   ar
     8     7     8    1
     9     7     9   ar
    10     9    10   ar
    11    10    11   ar
    12    11    12   ar
    13     1    12    1
    14     1    15    1
    15    15    16   ar
    16    16    17   ar
    17    17    18   ar
    18    18    19   ar
    19    19    20   ar
    20     1    21    1
    21    21    22    1
    22    21    33    1
    23    33    34    1
    24    34    35    1
    25    35    36    1
    26    35    37    1
    27    21    24    1
    28    24    25   ar
    29    25    26   ar
    30    26    27   ar
    31    27    28   ar
    32    28    29   ar
    33    29    30   ar
    34    30    31   ar
    35    31    32   ar
    36    12     2   ar
    37    20    15   ar
    38    32    24   ar
    39    10     4   ar
    40    32    28   ar
    41    22    23    1
@<TRIPOS>MOLECULE
*****
 37 41 0 0 0
SMALL
GASTEIGER

@<TRIPOS>ATOM
      1 C          63.1129   88.8077   12.0942 C.3     1  UNL1        0.0761
      2 C          60.7391   88.8081   11.0380 C.ar    1  UNL1        0.1351
      3 C          59.7753   88.2972   10.0084 C.ar    1  UNL1        0.0366
      4 C          60.2214   87.2749    9.0054 C.ar    1  UNL1        0.0030
      5 C          59.2576   86.7640    7.9759 C.ar    1  UNL1        0.0006
      6 C          59.7036   85.7417    6.9730 C.ar    1  UNL1        0.0067
      7 C          61.1135   85.2303    6.9996 C.ar    1  UNL1        0.0346
      8 BR         61.5596   84.2080    5.9966 Br      1  UNL1       -0.0490
      9 C          62.0773   85.7412    8.0291 C.ar    1  UNL1        0.0067
     10 C          61.6313   86.7635    9.0321 C.ar    1  UNL1        0.0004
     11 C          62.5951   87.2745   10.0617 C.ar    1  UNL1       -0.0009
     12 C          62.1490   88.2968   11.0646 C.ar    1  UNL1        0.0181
     13 C          59.1856   90.7827   11.6995 C.3     1  UNL1        0.2525
     14 O          60.2931   89.8305   12.0410 O.3     1  UNL1       -0.4717
     15 C          63.6682   87.8753   13.1297 C.ar    1  UNL1       -0.0157
     16 C          64.6598   88.3778   14.1368 C.ar    1  UNL1       -0.0039
     17 C          65.2151   87.4454   15.1723 C.ar    1  UNL1       -0.0003
     18 C          64.7789   86.0106   15.2007 C.ar    1  UNL1       -0.0000
     19 C          63.7872   85.5080   14.1936 C.ar    1  UNL1       -0.0003
     20 C          63.2319   86.4404   13.1581 C.ar    1  UNL1       -0.0039
     21 C          63.5213   90.2510   12.0883 C.3     1  UNL1        0.1186
     22 O          63.6748   90.2014   10.5970 O.3     1  UNL1       -0.3819
     23 H          62.9998   89.6145   10.2218 H       1  UNL1        0.2107
     24 C          63.3678   90.3006   13.5796 C.ar    1  UNL1        0.0369
     25 C          62.2711   89.5246   14.2469 C.ar    1  UNL1        0.0010
     26 C          62.1176   89.5742   15.7381 C.ar    1  UNL1       -0.0000
     27 C          63.0607   90.3996   16.5622 C.ar    1  UNL1        0.0031
     28 C          64.1574   91.1756   15.8949 C.ar    1  UNL1        0.0375
     29 C          65.2300   92.0702   16.4418 C.ar    1  UNL1        0.0437
     30 C          66.0464   92.5736   15.2885 C.ar    1  UNL1        0.1796
     31 O          65.4784   91.9901   14.0289 O.2     1  UNL1       -0.4507
     32 C          64.3109   91.1260   14.4036 C.ar    1  UNL1        0.1436
     33 C          63.9297   91.6943   12.0824 C.3     1  UNL1        0.0492
     34 C          64.5410   92.2957   10.8517 C.3     1  UNL1        0.0750
     35 N          65.8550   93.0138   10.9411 N.3     1  UNL1       -0.2702
     36 C          65.9251   94.3741   11.5693 C.3     1  UNL1        0.0897
     37 C          67.0988   92.3715   10.4023 C.3     1  UNL1        0.0897
@<TRIPOS>BOND
     1    13    14    1
     2    14     2    1
     3     2     3   ar
     4     3     4   ar
     5     4     5   ar
     6     5     6   ar
     7     6     7   ar
     8     7     8    1
     9     7     9   ar
    10     9    10   ar
    11    10    11   ar
    12    11    12   ar
    13     1    12    1
    14     1    15    1
    15    15    16   ar
    16    16    17   ar
    17    17    18   ar
    18    18    19   ar
    19    19    20   ar
    20     1    21    1
    21    21    22    1
    22    21    33    1
    23    33    34    1
    24    34    35    1
    25    35    36    1
    26    35    37    1
    27    21    24    1
    28    24    25   ar
    29    25    26   ar
    30    26    27   ar
    31    27    28   ar
    32    28    29   ar
    33    29    30   ar
    34    30    31   ar
    35    31    32   ar
    36    12     2   ar
    37    20    15   ar
    38    32    24   ar
    39    10     4   ar
    40    32    28   ar
    41    22    23    1
@<TRIPOS>MOLECULE
*****
 37 41 0 0 0
SMALL
GASTEIGER

@<TRIPOS>ATOM
      1 C          62.5711   86.7751   12.3150 C.3     1  UNL1        0.0761
      2 C          62.8641   89.0809   11.1540 C.ar    1  UNL1        0.1351
      3 C          63.4279   90.4708   11.1497 C.ar    1  UNL1        0.0366
      4 C          64.2626   90.9452   12.3024 C.ar    1  UNL1        0.0030
      5 C          64.8264   92.3352   12.2981 C.ar    1  UNL1        0.0006
      6 C          65.6609   92.8095   13.4507 C.ar    1  UNL1        0.0067
      7 C          65.9317   91.8938   14.6075 C.ar    1  UNL1        0.0346
      8 BR         66.7663   92.3681   15.7602 Br      1  UNL1       -0.0490
      9 C          65.3679   90.5038   14.6118 C.ar    1  UNL1        0.0067
     10 C          64.5333   90.0295   13.4592 C.ar    1  UNL1        0.0004
     11 C          63.9695   88.6395   13.4634 C.ar    1  UNL1       -0.0009
     12 C          63.1349   88.1652   12.3108 C.ar    1  UNL1        0.0181
     13 C          61.2353   89.5911    9.1952 C.3     1  UNL1        0.2525
     14 O          62.0295   88.6065   10.0013 O.3     1  UNL1       -0.4717
     15 C          63.0815   85.7617   13.2960 C.ar    1  UNL1       -0.0157
     16 C          62.1982   85.2865   14.4114 C.ar    1  UNL1       -0.0039
     17 C          62.7086   84.2731   15.3924 C.ar    1  UNL1       -0.0003
     18 C          64.1022   83.7349   15.2582 C.ar    1  UNL1       -0.0000
     19 C          64.9856   84.2101   14.1428 C.ar    1  UNL1       -0.0003
     20 C          64.4752   85.2235   13.1617 C.ar    1  UNL1       -0.0039
     21 C          61.4969   86.3986   11.3381 C.3     1  UNL1        0.1186
     22 O          60.5833   87.4193   11.9492 O.3     1  UNL1       -0.3819
     23 H          61.1012   88.1900   12.2298 H       1  UNL1        0.2107
     24 C          62.4104   85.3779   10.7270 C.ar    1  UNL1        0.0369
     25 C          63.2459   85.7376    9.5342 C.ar    1  UNL1        0.0010
     26 C          64.1595   84.7170    8.9231 C.ar    1  UNL1       -0.0000
     27 C          64.2377   83.3365    9.5046 C.ar    1  UNL1        0.0031
     28 C          63.4022   82.9767   10.6973 C.ar    1  UNL1        0.0375
     29 C          63.2687   81.7058   11.4827 C.ar    1  UNL1        0.0437
     30 C          62.2726   81.9410   12.5793 C.ar    1  UNL1        0.1796
     31 O          61.7905   83.3573   12.4716 O.2     1  UNL1       -0.4507
     32 C          62.4886   83.9974   11.3085 C.ar    1  UNL1        0.1436
     33 C          60.4227   86.0220   10.3613 C.3     1  UNL1        0.0492
     34 C          59.7218   87.0863    9.5700 C.3     1  UNL1        0.0750
     35 N          59.5971   86.9542    8.0810 N.3     1  UNL1       -0.2702
     36 C          60.1766   85.7598    7.3829 C.3     1  UNL1        0.0897
     37 C          58.8928   88.0166    7.2902 C.3     1  UNL1        0.0897
@<TRIPOS>BOND
     1    13    14    1
     2    14     2    1
     3     2     3   ar
     4     3     4   ar
     5     4     5   ar
     6     5     6   ar
     7     6     7   ar
     8     7     8    1
     9     7     9   ar
    10     9    10   ar
    11    10    11   ar
    12    11    12   ar
    13     1    12    1
    14     1    15    1
    15    15    16   ar
    16    16    17   ar
    17    17    18   ar
    18    18    19   ar
    19    19    20   ar
    20     1    21    1
    21    21    22    1
    22    21    33    1
    23    33    34    1
    24    34    35    1
    25    35    36    1
    26    35    37    1
    27    21    24    1
    28    24    25   ar
    29    25    26   ar
    30    26    27   ar
    31    27    28   ar
    32    28    29   ar
    33    29    30   ar
    34    30    31   ar
    35    31    32   ar
    36    12     2   ar
    37    20    15   ar
    38    32    24   ar
    39    10     4   ar
    40    32    28   ar
    41    22    23    1
