@<TRIPOS>MOLECULE
*****
 33 36 0 0 0
SMALL
GASTEIGER

@<TRIPOS>ATOM
      1 C          62.1036   87.5702   11.3179 C.ar    1  UNL1        0.0917
      2 C          62.6449   86.2822   11.8638 C.ar    1  UNL1        0.1606
      3 C          62.3543   84.9890   11.1616 C.ar    1  UNL1        0.1152
      4 N          61.5225   84.9837    9.9134 N.ar    1  UNL1       -0.2423
      5 C          60.9811   86.2718    9.3675 C.ar    1  UNL1        0.0816
      6 C          60.1493   86.2665    8.1193 C.ar    1  UNL1        0.0191
      7 C          59.6080   87.5545    7.5734 C.ar    1  UNL1        0.0015
      8 C          59.8986   88.8477    8.2757 C.ar    1  UNL1        0.0001
      9 C          60.7304   88.8530    9.5238 C.ar    1  UNL1        0.0017
     10 C          61.2717   87.5650   10.0697 C.ar    1  UNL1        0.0251
     11 C          62.8957   83.7009   11.7075 C.ar    1  UNL1        0.0206
     12 C          64.3432   83.3559   11.5190 C.ar    1  UNL1        0.0016
     13 C          64.8844   82.0680   12.0649 C.ar    1  UNL1        0.0000
     14 C          63.9782   81.1250   12.7995 C.ar    1  UNL1        0.0000
     15 C          62.5307   81.4700   12.9880 C.ar    1  UNL1        0.0000
     16 C          61.9894   82.7580   12.4421 C.ar    1  UNL1        0.0016
     17 N          63.6931   89.0465   12.7475 N.am    1  UNL1       -0.2205
     18 C          62.3942   88.8634   12.0202 C.2     1  UNL1        0.2650
     19 O          61.3856   89.9735   11.9951 O.2     1  UNL1       -0.2685
     20 H          64.3550   88.3179   12.7640 H       1  UNL1        0.1738
     21 C          63.4489   90.5801   14.8304 C.2     1  UNL1        0.4250
     22 O          62.6235   89.5272   15.5089 O.2     1  UNL1       -0.2242
     23 N          63.9837   90.3397   13.4498 N.am    1  UNL1       -0.1519
     24 C          64.8091   91.3926   12.7714 C.ar    1  UNL1        0.0760
     25 C          66.0116   91.9637   13.4626 C.ar    1  UNL1        0.0167
     26 C          66.8371   93.0165   12.7842 C.ar    1  UNL1        0.0013
     27 C          66.4599   93.4982   11.4147 C.ar    1  UNL1        0.0001
     28 C          65.2574   92.9271   10.7235 C.ar    1  UNL1        0.0013
     29 C          64.4320   91.8743   11.4018 C.ar    1  UNL1        0.0167
     30 C          64.5729   91.8786   16.7799 C.3     1  UNL1        0.2574
     31 O          63.7395   91.8733   15.5327 O.3     1  UNL1       -0.4292
     32 O          63.4768   86.2874   13.1121 O.3     1  UNL1       -0.4698
     33 C          63.0434   85.4887   14.3055 C.3     1  UNL1        0.2525
@<TRIPOS>BOND
     1    30    31    1
     2    31    21    1
     3    21    22    2
     4    21    23   am
     5    23    17    1
     6    17    18   am
     7    18    19    2
     8    18     1    1
     9     1     2   ar
    10     2    32    1
    11    32    33    1
    12     2     3   ar
    13     3    11    1
    14    11    12   ar
    15    12    13   ar
    16    13    14   ar
    17    14    15   ar
    18    15    16   ar
    19     3     4   ar
    20     4     5   ar
    21     5     6   ar
    22     6     7   ar
    23     7     8   ar
    24     8     9   ar
    25     9    10   ar
    26    23    24    1
    27    24    25   ar
    28    25    26   ar
    29    26    27   ar
    30    27    28   ar
    31    28    29   ar
    32    10     1   ar
    33    29    24   ar
    34    16    11   ar
    35    10     5   ar
    36    17    20    1
@<TRIPOS>MOLECULE
*****
 33 36 0 0 0
SMALL
GASTEIGER

@<TRIPOS>ATOM
      1 C          63.3556   88.6255   12.5701 C.ar    1  UNL1        0.0917
      2 C          62.5265   88.4265   11.3360 C.ar    1  UNL1        0.1606
      3 C          62.0148   87.0600   10.9885 C.ar    1  UNL1        0.1152
      4 N          62.3321   85.8925   11.8752 N.ar    1  UNL1       -0.2423
      5 C          63.1612   86.0914   13.1094 C.ar    1  UNL1        0.0816
      6 C          63.4785   84.9239   13.9960 C.ar    1  UNL1        0.0191
      7 C          64.3075   85.1229   15.2301 C.ar    1  UNL1        0.0015
      8 C          64.8193   86.4895   15.5775 C.ar    1  UNL1        0.0001
      9 C          64.5020   87.6570   14.6909 C.ar    1  UNL1        0.0017
     10 C          63.6729   87.4580   13.4568 C.ar    1  UNL1        0.0251
     11 C          61.1857   86.8610    9.7544 C.ar    1  UNL1        0.0206
     12 C          59.8408   87.5154    9.6408 C.ar    1  UNL1        0.0016
     13 C          59.0118   87.3165    8.4067 C.ar    1  UNL1        0.0000
     14 C          59.5276   86.4630    7.2861 C.ar    1  UNL1        0.0000
     15 C          60.8725   85.8086    7.3998 C.ar    1  UNL1        0.0000
     16 C          61.7015   86.0076    8.6339 C.ar    1  UNL1        0.0016
     17 N          65.1062   90.5194   12.2564 N.am    1  UNL1       -0.2205
     18 C          63.8674   89.9920   12.9175 C.2     1  UNL1        0.2650
     19 O          63.1402   90.8312   13.9260 O.2     1  UNL1       -0.2685
     20 H          65.5835   89.9686   11.5945 H       1  UNL1        0.1738
     21 C          65.3256   93.0481   11.7017 C.2     1  UNL1        0.4250
     22 O          64.5214   92.8437   10.4521 O.2     1  UNL1       -0.2242
     23 N          65.6180   91.8859   12.6039 N.am    1  UNL1       -0.1519
     24 C          66.4222   92.0903   13.8535 C.ar    1  UNL1        0.0760
     25 C          65.7312   92.4068   15.1467 C.ar    1  UNL1        0.0167
     26 C          66.5354   92.6112   16.3963 C.ar    1  UNL1        0.0013
     27 C          68.0305   92.4990   16.3527 C.ar    1  UNL1        0.0001
     28 C          68.7215   92.1824   15.0595 C.ar    1  UNL1        0.0013
     29 C          67.9174   91.9781   13.8099 C.ar    1  UNL1        0.0167
     30 C          66.3942   95.3022   10.9758 C.3     1  UNL1        0.2574
     31 O          65.8374   94.4146   12.0492 O.3     1  UNL1       -0.4292
     32 O          62.2092   89.5940   10.4492 O.3     1  UNL1       -0.4698
     33 C          61.0989   90.5338   10.8153 C.3     1  UNL1        0.2525
@<TRIPOS>BOND
     1    30    31    1
     2    31    21    1
     3    21    22    2
     4    21    23   am
     5    23    17    1
     6    17    18   am
     7    18    19    2
     8    18     1    1
     9     1     2   ar
    10     2    32    1
    11    32    33    1
    12     2     3   ar
    13     3    11    1
    14    11    12   ar
    15    12    13   ar
    16    13    14   ar
    17    14    15   ar
    18    15    16   ar
    19     3     4   ar
    20     4     5   ar
    21     5     6   ar
    22     6     7   ar
    23     7     8   ar
    24     8     9   ar
    25     9    10   ar
    26    23    24    1
    27    24    25   ar
    28    25    26   ar
    29    26    27   ar
    30    27    28   ar
    31    28    29   ar
    32    10     1   ar
    33    29    24   ar
    34    16    11   ar
    35    10     5   ar
    36    17    20    1
@<TRIPOS>MOLECULE
*****
 33 36 0 0 0
SMALL
GASTEIGER

@<TRIPOS>ATOM
      1 C          63.3497   89.2203   12.4604 C.ar    1  UNL1        0.0917
      2 C          62.4477   89.1762   11.2628 C.ar    1  UNL1        0.1606
      3 C          61.8481   87.8735   10.8229 C.ar    1  UNL1        0.1152
      4 N          62.1505   86.6148   11.5807 N.ar    1  UNL1       -0.2423
      5 C          63.0526   86.6589   12.7784 C.ar    1  UNL1        0.0816
      6 C          63.3550   85.4002   13.5362 C.ar    1  UNL1        0.0191
      7 C          64.2570   85.4443   14.7339 C.ar    1  UNL1        0.0015
      8 C          64.8566   86.7470   15.1737 C.ar    1  UNL1        0.0001
      9 C          64.5542   88.0056   14.4159 C.ar    1  UNL1        0.0017
     10 C          63.6522   87.9616   13.2183 C.ar    1  UNL1        0.0251
     11 C          60.9461   87.8295    9.6252 C.ar    1  UNL1        0.0206
     12 C          60.5497   86.5096    9.0329 C.ar    1  UNL1        0.0016
     13 C          59.6477   86.4657    7.8352 C.ar    1  UNL1        0.0000
     14 C          59.1421   87.7416    7.2299 C.ar    1  UNL1        0.0000
     15 C          59.5384   89.0614    7.8222 C.ar    1  UNL1        0.0000
     16 C          60.4404   89.1054    9.0199 C.ar    1  UNL1        0.0016
     17 N          65.3453   90.8835   12.4870 N.am    1  UNL1       -0.2205
     18 C          63.9492   90.5230   12.9003 C.2     1  UNL1        0.2650
     19 O          63.1526   91.4651   13.7535 O.2     1  UNL1       -0.2685
     20 H          65.8681   90.2652   11.9271 H       1  UNL1        0.1738
     21 C          66.1764   92.4509   14.3851 C.2     1  UNL1        0.4250
     22 O          65.8084   91.4129   15.4035 O.2     1  UNL1       -0.2242
     23 N          65.9449   92.1862   12.9269 N.am    1  UNL1       -0.1519
     24 C          66.3129   93.2243   11.9085 C.ar    1  UNL1        0.0760
     25 C          66.9610   92.8137   10.6195 C.ar    1  UNL1        0.0167
     26 C          67.3290   93.8517    9.6012 C.ar    1  UNL1        0.0013
     27 C          67.0490   95.3002    9.8718 C.ar    1  UNL1        0.0001
     28 C          66.4009   95.7108   11.1607 C.ar    1  UNL1        0.0013
     29 C          66.0329   94.6728   12.1791 C.ar    1  UNL1        0.0167
     30 C          68.0318   93.7622   15.6453 C.3     1  UNL1        0.2574
     31 O          66.7760   93.7536   14.8249 O.3     1  UNL1       -0.4292
     32 O          62.1452   90.4349   10.5049 O.3     1  UNL1       -0.4698
     33 C          63.2653   91.2614    9.9461 C.3     1  UNL1        0.2525
@<TRIPOS>BOND
     1    30    31    1
     2    31    21    1
     3    21    22    2
     4    21    23   am
     5    23    17    1
     6    17    18   am
     7    18    19    2
     8    18     1    1
     9     1     2   ar
    10     2    32    1
    11    32    33    1
    12     2     3   ar
    13     3    11    1
    14    11    12   ar
    15    12    13   ar
    16    13    14   ar
    17    14    15   ar
    18    15    16   ar
    19     3     4   ar
    20     4     5   ar
    21     5     6   ar
    22     6     7   ar
    23     7     8   ar
    24     8     9   ar
    25     9    10   ar
    26    23    24    1
    27    24    25   ar
    28    25    26   ar
    29    26    27   ar
    30    27    28   ar
    31    28    29   ar
    32    10     1   ar
    33    29    24   ar
    34    16    11   ar
    35    10     5   ar
    36    17    20    1
@<TRIPOS>MOLECULE
*****
 33 36 0 0 0
SMALL
GASTEIGER

@<TRIPOS>ATOM
      1 C          63.0687   87.1952   12.4847 C.ar    1  UNL1        0.0917
      2 C          62.6093   87.0107   11.0688 C.ar    1  UNL1        0.1606
      3 C          62.5080   85.6319   10.4868 C.ar    1  UNL1        0.1152
      4 N          62.8660   84.4376   11.3208 N.ar    1  UNL1       -0.2423
      5 C          63.3254   84.6221   12.7368 C.ar    1  UNL1        0.0816
      6 C          63.6834   83.4279   13.5708 C.ar    1  UNL1        0.0191
      7 C          64.1427   83.6124   14.9867 C.ar    1  UNL1        0.0015
      8 C          64.2440   84.9912   15.5687 C.ar    1  UNL1        0.0001
      9 C          63.8860   86.1854   14.7347 C.ar    1  UNL1        0.0017
     10 C          63.4267   86.0009   13.3188 C.ar    1  UNL1        0.0251
     11 C          62.0486   85.4474    9.0708 C.ar    1  UNL1        0.0206
     12 C          62.9883   84.8878    8.0444 C.ar    1  UNL1        0.0016
     13 C          62.5289   84.7033    6.6285 C.ar    1  UNL1        0.0000
     14 C          61.1298   85.0785    6.2390 C.ar    1  UNL1        0.0000
     15 C          60.1901   85.6381    7.2655 C.ar    1  UNL1        0.0000
     16 C          60.6495   85.8226    8.6814 C.ar    1  UNL1        0.0016
     17 N          64.3454   88.9422   13.9227 N.am    1  UNL1       -0.2205
     18 C          63.1700   88.5740   13.0667 C.2     1  UNL1        0.2650
     19 O          62.0959   89.5846   12.7926 O.2     1  UNL1       -0.2685
     20 H          65.0504   88.2790   14.1026 H       1  UNL1        0.1738
     21 C          63.7000   90.6619   15.7601 C.2     1  UNL1        0.4250
     22 O          62.8519   89.6240   16.4336 O.2     1  UNL1       -0.2242
     23 N          64.4467   90.3210   14.5047 N.am    1  UNL1       -0.1519
     24 C          65.2948   91.3589   13.8312 C.ar    1  UNL1        0.0760
     25 C          64.7715   92.0921   12.6318 C.ar    1  UNL1        0.0167
     26 C          65.6196   93.1300   11.9583 C.ar    1  UNL1        0.0013
     27 C          66.9909   93.4346   12.4841 C.ar    1  UNL1        0.0001
     28 C          67.5142   92.7013   13.6835 C.ar    1  UNL1        0.0013
     29 C          66.6662   91.6635   14.3570 C.ar    1  UNL1        0.0167
     30 C          65.0236   92.4409   17.1142 C.3     1  UNL1        0.2574
     31 O          63.8013   92.0407   16.3421 O.3     1  UNL1       -0.4292
     32 O          62.2513   88.2050   10.2348 O.3     1  UNL1       -0.4698
     33 C          60.8323   88.6890   10.1882 C.3     1  UNL1        0.2525
@<TRIPOS>BOND
     1    30    31    1
     2    31    21    1
     3    21    22    2
     4    21    23   am
     5    23    17    1
     6    17    18   am
     7    18    19    2
     8    18     1    1
     9     1     2   ar
    10     2    32    1
    11    32    33    1
    12     2     3   ar
    13     3    11    1
    14    11    12   ar
    15    12    13   ar
    16    13    14   ar
    17    14    15   ar
    18    15    16   ar
    19     3     4   ar
    20     4     5   ar
    21     5     6   ar
    22     6     7   ar
    23     7     8   ar
    24     8     9   ar
    25     9    10   ar
    26    23    24    1
    27    24    25   ar
    28    25    26   ar
    29    26    27   ar
    30    27    28   ar
    31    28    29   ar
    32    10     1   ar
    33    29    24   ar
    34    16    11   ar
    35    10     5   ar
    36    17    20    1
@<TRIPOS>MOLECULE
*****
 33 36 0 0 0
SMALL
GASTEIGER

@<TRIPOS>ATOM
      1 C          63.1039   89.0322   12.2848 C.ar    1  UNL1        0.0917
      2 C          63.4523   87.7595   12.9983 C.ar    1  UNL1        0.1606
      3 C          62.8241   86.4654   12.5734 C.ar    1  UNL1        0.1152
      4 N          61.8475   86.4438   11.4352 N.ar    1  UNL1       -0.2423
      5 C          61.4990   87.7165   10.7216 C.ar    1  UNL1        0.0816
      6 C          60.5224   87.6949    9.5834 C.ar    1  UNL1        0.0191
      7 C          60.1740   88.9675    8.8699 C.ar    1  UNL1        0.0015
      8 C          60.8022   90.2617    9.2948 C.ar    1  UNL1        0.0001
      9 C          61.7788   90.2833   10.4331 C.ar    1  UNL1        0.0017
     10 C          62.1272   89.0107   11.1465 C.ar    1  UNL1        0.0251
     11 C          63.1726   85.1927   13.2869 C.ar    1  UNL1        0.0206
     12 C          64.1030   84.2051   12.6476 C.ar    1  UNL1        0.0016
     13 C          64.4514   82.9325   13.3611 C.ar    1  UNL1        0.0000
     14 C          63.8694   82.6476   14.7139 C.ar    1  UNL1        0.0000
     15 C          62.9389   83.6352   15.3532 C.ar    1  UNL1        0.0000
     16 C          62.5905   84.9078   14.6397 C.ar    1  UNL1        0.0016
     17 N          64.9917   90.8013   12.0481 N.am    1  UNL1       -0.2205
     18 C          63.7321   90.3263   12.7097 C.2     1  UNL1        0.2650
     19 O          63.1007   91.1455   13.7961 O.2     1  UNL1       -0.2685
     20 H          65.4062   90.2637   11.3351 H       1  UNL1        0.1738
     21 C          65.4694   93.3186   11.6178 C.2     1  UNL1        0.4250
     22 O          64.6906   93.2476   10.3377 O.2     1  UNL1       -0.2242
     23 N          65.6199   92.0955   12.4730 N.am    1  UNL1       -0.1519
     24 C          66.3987   92.1665   13.7530 C.ar    1  UNL1        0.0760
     25 C          67.8760   91.9065   13.7476 C.ar    1  UNL1        0.0167
     26 C          68.6548   91.9775   15.0276 C.ar    1  UNL1        0.0013
     27 C          67.9563   92.3086   16.3130 C.ar    1  UNL1        0.0001
     28 C          66.4790   92.5686   16.3185 C.ar    1  UNL1        0.0013
     29 C          65.7002   92.4976   15.0385 C.ar    1  UNL1        0.0167
     30 C          66.3753   95.6808   11.0266 C.3     1  UNL1        0.2574
     31 O          66.0976   94.6128   12.0426 O.3     1  UNL1       -0.4292
     32 O          64.4290   87.7811   14.1366 O.3     1  UNL1       -0.4698
     33 C          63.9667   88.1521   15.5145 C.3     1  UNL1        0.2525
@<TRIPOS>BOND
     1    30    31    1
     2    31    21    1
     3    21    22    2
     4    21    23   am
     5    23    17    1
     6    17    18   am
     7    18    19    2
     8    18     1    1
     9     1     2   ar
    10     2    32    1
    11    32    33    1
    12     2     3   ar
    13     3    11    1
    14    11    12   ar
    15    12    13   ar
    16    13    14   ar
    17    14    15   ar
    18    15    16   ar
    19     3     4   ar
    20     4     5   ar
    21     5     6   ar
    22     6     7   ar
    23     7     8   ar
    24     8     9   ar
    25     9    10   ar
    26    23    24    1
    27    24    25   ar
    28    25    26   ar
    29    26    27   ar
    30    27    28   ar
    31    28    29   ar
    32    10     1   ar
    33    29    24   ar
    34    16    11   ar
    35    10     5   ar
    36    17    20    1
@<TRIPOS>MOLECULE
*****
 33 36 0 0 0
SMALL
GASTEIGER

@<TRIPOS>ATOM
      1 C          63.7099   90.7309   12.6263 C.ar    1  UNL1        0.0917
      2 C          64.4598   91.5303   11.6023 C.ar    1  UNL1        0.1606
      3 C          65.4525   92.5664   12.0395 C.ar    1  UNL1        0.1152
      4 N          65.6951   92.8032   13.5007 N.ar    1  UNL1       -0.2423
      5 C          64.9452   92.0038   14.5247 C.ar    1  UNL1        0.0816
      6 C          65.1878   92.2405   15.9859 C.ar    1  UNL1        0.0191
      7 C          64.4379   91.4412   17.0098 C.ar    1  UNL1        0.0015
      8 C          63.4453   90.4050   16.5726 C.ar    1  UNL1        0.0001
      9 C          63.2026   90.1683   15.1115 C.ar    1  UNL1        0.0017
     10 C          63.9525   90.9676   14.0875 C.ar    1  UNL1        0.0251
     11 C          66.2024   93.3658   11.0155 C.ar    1  UNL1        0.0206
     12 C          65.8415   94.8014   10.7732 C.ar    1  UNL1        0.0016
     13 C          66.5914   95.6007    9.7492 C.ar    1  UNL1        0.0000
     14 C          67.7023   94.9644    8.9674 C.ar    1  UNL1        0.0000
     15 C          68.0633   93.5288    9.2097 C.ar    1  UNL1        0.0000
     16 C          67.3133   92.7295   10.2337 C.ar    1  UNL1        0.0016
     17 N          62.9953   88.8532   10.9790 N.am    1  UNL1       -0.2205
     18 C          62.7173   89.6948   12.1891 C.2     1  UNL1        0.2650
     19 O          61.4465   89.5003   12.9621 O.2     1  UNL1       -0.2685
     20 H          63.8293   88.9809   10.4717 H       1  UNL1        0.1738
     21 C          60.6477   88.2356   10.0532 C.2     1  UNL1        0.4250
     22 O          60.2852   89.6903   10.0018 O.2     1  UNL1       -0.2242
     23 N          62.0027   87.8171   10.5418 N.am    1  UNL1       -0.1519
     24 C          62.3652   86.3624   10.5932 C.ar    1  UNL1        0.0760
     25 C          62.2939   85.6172   11.8930 C.ar    1  UNL1        0.0167
     26 C          62.6563   84.1626   11.9445 C.ar    1  UNL1        0.0013
     27 C          63.0900   83.4532   10.6960 C.ar    1  UNL1        0.0001
     28 C          63.1612   84.1984    9.3962 C.ar    1  UNL1        0.0013
     29 C          62.7988   85.6530    9.3448 C.ar    1  UNL1        0.0167
     30 C          59.3899   86.9840    8.1554 C.3     1  UNL1        0.2574
     31 O          59.6551   87.1995    9.6160 O.3     1  UNL1       -0.4292
     32 O          64.2172   91.2936   10.1411 O.3     1  UNL1       -0.4698
     33 C          62.8867   91.6329    9.5371 C.3     1  UNL1        0.2525
@<TRIPOS>BOND
     1    30    31    1
     2    31    21    1
     3    21    22    2
     4    21    23   am
     5    23    17    1
     6    17    18   am
     7    18    19    2
     8    18     1    1
     9     1     2   ar
    10     2    32    1
    11    32    33    1
    12     2     3   ar
    13     3    11    1
    14    11    12   ar
    15    12    13   ar
    16    13    14   ar
    17    14    15   ar
    18    15    16   ar
    19     3     4   ar
    20     4     5   ar
    21     5     6   ar
    22     6     7   ar
    23     7     8   ar
    24     8     9   ar
    25     9    10   ar
    26    23    24    1
    27    24    25   ar
    28    25    26   ar
    29    26    27   ar
    30    27    28   ar
    31    28    29   ar
    32    10     1   ar
    33    29    24   ar
    34    16    11   ar
    35    10     5   ar
    36    17    20    1
@<TRIPOS>MOLECULE
*****
 33 36 0 0 0
SMALL
GASTEIGER

@<TRIPOS>ATOM
      1 C          62.9755   88.9526   12.1514 C.ar    1  UNL1        0.0917
      2 C          63.3462   87.6828   12.8587 C.ar    1  UNL1        0.1606
      3 C          62.7356   86.3809   12.4320 C.ar    1  UNL1        0.1152
      4 N          61.7543   86.3486   11.2980 N.ar    1  UNL1       -0.2423
      5 C          61.3836   87.6184   10.5906 C.ar    1  UNL1        0.0816
      6 C          60.4023   87.5862    9.4566 C.ar    1  UNL1        0.0191
      7 C          60.0316   88.8559    8.7493 C.ar    1  UNL1        0.0015
      8 C          60.6422   90.1579    9.1760 C.ar    1  UNL1        0.0001
      9 C          61.6235   90.1901   10.3100 C.ar    1  UNL1        0.0017
     10 C          61.9942   88.9204   11.0173 C.ar    1  UNL1        0.0251
     11 C          63.1063   85.1111   13.1394 C.ar    1  UNL1        0.0206
     12 C          64.0302   84.1289   12.4824 C.ar    1  UNL1        0.0016
     13 C          64.4009   82.8592   13.1898 C.ar    1  UNL1        0.0000
     14 C          63.8477   82.5717   14.5541 C.ar    1  UNL1        0.0000
     15 C          62.9238   83.5539   15.2110 C.ar    1  UNL1        0.0000
     16 C          62.5531   84.8236   14.5037 C.ar    1  UNL1        0.0016
     17 N          65.0449   90.5117   12.3422 N.am    1  UNL1       -0.2205
     18 C          63.5861   90.2545   12.5781 C.2     1  UNL1        0.2650
     19 O          62.7378   91.2993   13.2407 O.2     1  UNL1       -0.2685
     20 H          65.6017   89.8260   11.9074 H       1  UNL1        0.1738
     21 C          65.7094   92.1758   14.2235 C.2     1  UNL1        0.4250
     22 O          65.1526   91.2359   15.2515 O.2     1  UNL1       -0.2242
     23 N          65.6555   91.8137   12.7689 N.am    1  UNL1       -0.1519
     24 C          66.2123   92.7536   11.7409 C.ar    1  UNL1        0.0760
     25 C          65.7977   94.1951   11.7400 C.ar    1  UNL1        0.0167
     26 C          66.3544   95.1350   10.7121 C.ar    1  UNL1        0.0013
     27 C          67.3257   94.6333    9.6851 C.ar    1  UNL1        0.0001
     28 C          67.7403   93.1917    9.6860 C.ar    1  UNL1        0.0013
     29 C          67.1836   92.2519   10.7139 C.ar    1  UNL1        0.0167
     30 C          67.6415   93.4895   15.3599 C.3     1  UNL1        0.2574
     31 O          66.3200   93.4777   14.6502 O.3     1  UNL1       -0.4292
     32 O          64.3275   87.7150   13.9928 O.3     1  UNL1       -0.4698
     33 C          63.8647   88.0681   15.3752 C.3     1  UNL1        0.2525
@<TRIPOS>BOND
     1    30    31    1
     2    31    21    1
     3    21    22    2
     4    21    23   am
     5    23    17    1
     6    17    18   am
     7    18    19    2
     8    18     1    1
     9     1     2   ar
    10     2    32    1
    11    32    33    1
    12     2     3   ar
    13     3    11    1
    14    11    12   ar
    15    12    13   ar
    16    13    14   ar
    17    14    15   ar
    18    15    16   ar
    19     3     4   ar
    20     4     5   ar
    21     5     6   ar
    22     6     7   ar
    23     7     8   ar
    24     8     9   ar
    25     9    10   ar
    26    23    24    1
    27    24    25   ar
    28    25    26   ar
    29    26    27   ar
    30    27    28   ar
    31    28    29   ar
    32    10     1   ar
    33    29    24   ar
    34    16    11   ar
    35    10     5   ar
    36    17    20    1
@<TRIPOS>MOLECULE
*****
 33 36 0 0 0
SMALL
GASTEIGER

@<TRIPOS>ATOM
      1 C          63.9898   90.8439   12.8885 C.ar    1  UNL1        0.0917
      2 C          64.6274   91.6141   11.7704 C.ar    1  UNL1        0.1606
      3 C          65.5407   92.7639   12.0770 C.ar    1  UNL1        0.1152
      4 N          65.8164   93.1434   13.5017 N.ar    1  UNL1       -0.2423
      5 C          65.1787   92.3732   14.6199 C.ar    1  UNL1        0.0816
      6 C          65.4544   92.7527   16.0447 C.ar    1  UNL1        0.0191
      7 C          64.8168   91.9825   17.1628 C.ar    1  UNL1        0.0015
      8 C          63.9036   90.8327   16.8561 C.ar    1  UNL1        0.0001
      9 C          63.6279   90.4532   15.4314 C.ar    1  UNL1        0.0017
     10 C          64.2655   91.2234   14.3133 C.ar    1  UNL1        0.0251
     11 C          66.1783   93.5341   10.9588 C.ar    1  UNL1        0.0206
     12 C          67.2836   92.9145   10.1562 C.ar    1  UNL1        0.0016
     13 C          67.9211   93.6847    9.0380 C.ar    1  UNL1        0.0000
     14 C          67.4534   95.0746    8.7226 C.ar    1  UNL1        0.0000
     15 C          66.3481   95.6942    9.5252 C.ar    1  UNL1        0.0000
     16 C          65.7105   94.9240   10.6434 C.ar    1  UNL1        0.0016
     17 N          63.5590   88.5608   11.7259 N.am    1  UNL1       -0.2205
     18 C          63.0766   89.6942   12.5818 C.2     1  UNL1        0.2650
     19 O          61.6808   89.6778   13.1312 O.2     1  UNL1       -0.2685
     20 H          64.4750   88.5715   11.3653 H       1  UNL1        0.1738
     21 C          62.6768   86.1796   12.2751 C.2     1  UNL1        0.4250
     22 O          63.6213   86.0978   13.4376 O.2     1  UNL1       -0.2242
     23 N          62.6457   87.4110   11.4192 N.am    1  UNL1       -0.1519
     24 C          61.7013   87.4928   10.2567 C.ar    1  UNL1        0.0760
     25 C          61.5713   86.3340    9.3131 C.ar    1  UNL1        0.0167
     26 C          60.6270   86.4157    8.1506 C.ar    1  UNL1        0.0013
     27 C          59.8126   87.6562    7.9317 C.ar    1  UNL1        0.0001
     28 C          59.9425   88.8149    8.8753 C.ar    1  UNL1        0.0013
     29 C          60.8869   88.7332   10.0378 C.ar    1  UNL1        0.0167
     30 C          62.3280   83.6524   11.7834 C.3     1  UNL1        0.2574
     31 O          61.7636   85.0298   11.9684 O.3     1  UNL1       -0.4292
     32 O          64.3518   91.2346   10.3455 O.3     1  UNL1       -0.4698
     33 C          62.9972   91.4844    9.7515 C.3     1  UNL1        0.2525
@<TRIPOS>BOND
     1    30    31    1
     2    31    21    1
     3    21    22    2
     4    21    23   am
     5    23    17    1
     6    17    18   am
     7    18    19    2
     8    18     1    1
     9     1     2   ar
    10     2    32    1
    11    32    33    1
    12     2     3   ar
    13     3    11    1
    14    11    12   ar
    15    12    13   ar
    16    13    14   ar
    17    14    15   ar
    18    15    16   ar
    19     3     4   ar
    20     4     5   ar
    21     5     6   ar
    22     6     7   ar
    23     7     8   ar
    24     8     9   ar
    25     9    10   ar
    26    23    24    1
    27    24    25   ar
    28    25    26   ar
    29    26    27   ar
    30    27    28   ar
    31    28    29   ar
    32    10     1   ar
    33    29    24   ar
    34    16    11   ar
    35    10     5   ar
    36    17    20    1
@<TRIPOS>MOLECULE
*****
 33 36 0 0 0
SMALL
GASTEIGER

@<TRIPOS>ATOM
      1 C          63.0742   86.9653   12.5216 C.ar    1  UNL1        0.0917
      2 C          62.2279   87.5414   11.4253 C.ar    1  UNL1        0.1606
      3 C          61.5969   86.6352   10.4101 C.ar    1  UNL1        0.1152
      4 N          61.8121   85.1530   10.4911 N.ar    1  UNL1       -0.2423
      5 C          62.6585   84.5768   11.5874 C.ar    1  UNL1        0.0816
      6 C          62.8738   83.0946   11.6684 C.ar    1  UNL1        0.0191
      7 C          63.7201   82.5185   12.7647 C.ar    1  UNL1        0.0015
      8 C          64.3512   83.4247   13.7799 C.ar    1  UNL1        0.0001
      9 C          64.1359   84.9069   13.6989 C.ar    1  UNL1        0.0017
     10 C          63.2896   85.4830   12.6027 C.ar    1  UNL1        0.0251
     11 C          60.7505   87.2114    9.3138 C.ar    1  UNL1        0.0206
     12 C          59.8978   86.3093    8.4718 C.ar    1  UNL1        0.0016
     13 C          59.0515   86.8855    7.3756 C.ar    1  UNL1        0.0000
     14 C          59.0579   88.3638    7.1214 C.ar    1  UNL1        0.0000
     15 C          59.9106   89.2659    7.9634 C.ar    1  UNL1        0.0000
     16 C          60.7569   88.6897    9.0596 C.ar    1  UNL1        0.0016
     17 N          63.4317   89.3458   13.4991 N.am    1  UNL1       -0.2205
     18 C          63.7053   87.8714   13.5368 C.2     1  UNL1        0.2650
     19 O          64.6100   87.3032   14.5898 O.2     1  UNL1       -0.2685
     20 H          62.8380   89.7187   12.8080 H       1  UNL1        0.1738
     21 C          63.5232   90.3022   15.9130 C.2     1  UNL1        0.4250
     22 O          62.3525   89.4463   16.2965 O.2     1  UNL1       -0.2242
     23 N          64.0628   90.2519   14.5143 N.am    1  UNL1       -0.1519
     24 C          65.2335   91.1078   14.1308 C.ar    1  UNL1        0.0760
     25 C          66.5311   90.9795   14.8722 C.ar    1  UNL1        0.0167
     26 C          67.7018   91.8354   14.4888 C.ar    1  UNL1        0.0013
     27 C          67.5748   92.8195   13.3639 C.ar    1  UNL1        0.0001
     28 C          66.2772   92.9477   12.6225 C.ar    1  UNL1        0.0013
     29 C          65.1065   92.0919   13.0059 C.ar    1  UNL1        0.0167
     30 C          63.9518   92.6919   16.8380 C.3     1  UNL1        0.2574
     31 O          64.1543   91.2083   16.9282 O.3     1  UNL1       -0.4292
     32 O          62.0126   89.0237   11.3443 O.3     1  UNL1       -0.4698
     33 C          60.7944   89.6397   11.9660 C.3     1  UNL1        0.2525
@<TRIPOS>BOND
     1    30    31    1
     2    31    21    1
     3    21    22    2
     4    21    23   am
     5    23    17    1
     6    17    18   am
     7    18    19    2
     8    18     1    1
     9     1     2   ar
    10     2    32    1
    11    32    33    1
    12     2     3   ar
    13     3    11    1
    14    11    12   ar
    15    12    13   ar
    16    13    14   ar
    17    14    15   ar
    18    15    16   ar
    19     3     4   ar
    20     4     5   ar
    21     5     6   ar
    22     6     7   ar
    23     7     8   ar
    24     8     9   ar
    25     9    10   ar
    26    23    24    1
    27    24    25   ar
    28    25    26   ar
    29    26    27   ar
    30    27    28   ar
    31    28    29   ar
    32    10     1   ar
    33    29    24   ar
    34    16    11   ar
    35    10     5   ar
    36    17    20    1
