@<TRIPOS>MOLECULE
*****
 31 36 0 0 0
SMALL
GASTEIGER

@<TRIPOS>ATOM
      1 N          72.0725   76.4523   13.5394 N.pl3   1  UNL1       -0.3075
      2 C          70.7952   76.2786   14.3064 C.3     1  UNL1        0.0908
      3 C          70.6673   75.1701   15.3089 C.3     1  UNL1        0.0237
      4 C          71.8166   74.2354   15.5443 C.3     1  UNL1        0.0285
      5 C          73.0939   74.4092   14.7773 C.3     1  UNL1        0.0237
      6 C          73.2219   75.5176   13.7748 C.3     1  UNL1        0.0908
      7 C          71.6886   73.1270   16.5468 C.3     1  UNL1        0.1117
      8 C          71.5960   71.6626   16.2351 C.ar    1  UNL1        0.0272
      9 C          71.6016   70.9103   14.9373 C.ar    1  UNL1        0.1379
     10 F          71.7167   71.6540   13.6399 F       1  UNL1       -0.2044
     11 C          71.4922   69.4143   14.9372 C.ar    1  UNL1        0.0294
     12 C          71.3771   68.6707   16.2348 C.ar    1  UNL1        0.0023
     13 C          71.3715   69.4229   17.5325 C.ar    1  UNL1        0.0014
     14 C          71.4809   70.9189   17.5327 C.ar    1  UNL1        0.0173
     15 C          71.5024   71.9235   18.6463 C.ar    1  UNL1        0.0804
     16 C          71.4445   72.0848   20.1365 C.ar    1  UNL1        0.1178
     17 N          71.5371   73.5491   20.4481 N.ar    1  UNL1       -0.2223
     18 C          71.6522   74.2929   19.1506 C.ar    1  UNL1        0.1788
     19 N          71.6307   73.2882   18.0370 N.ar    1  UNL1       -0.3069
     20 C          72.4564   79.7777   10.5319 C.ar    1  UNL1        0.0031
     21 C          72.8224   78.3743   10.1492 C.ar    1  UNL1        0.0014
     22 C          72.6945   77.2659   11.1517 C.ar    1  UNL1        0.0145
     23 C          72.2005   77.5608   12.5369 C.ar    1  UNL1        0.0478
     24 C          71.8344   78.9642   12.9197 C.ar    1  UNL1        0.0145
     25 C          71.9624   80.0726   11.9172 C.ar    1  UNL1        0.0014
     26 C          71.9987   82.6273    6.1103 C.3     1  UNL1        0.1538
     27 N          72.3740   82.1959    7.4971 N.ar    1  UNL1       -0.2473
     28 C          72.0006   80.8970    8.1478 C.ar    1  UNL1        0.0967
     29 C          72.5844   80.8861    9.5295 C.ar    1  UNL1        0.0396
     30 C          73.3186   82.1782    9.7328 C.ar    1  UNL1        0.1216
     31 N          73.1886   82.9877    8.4766 N.ar    1  UNL1       -0.1676
@<TRIPOS>BOND
     1    26    27    1
     2    27    28   ar
     3    28    29   ar
     4    29    20    1
     5    20    21   ar
     6    21    22   ar
     7    22    23   ar
     8    23     1    1
     9     1     2    1
    10     2     3    1
    11     3     4    1
    12     4     7    1
    13     7     8    1
    14     8     9   ar
    15     9    10    1
    16     9    11   ar
    17    11    12   ar
    18    12    13   ar
    19    13    14   ar
    20    14    15    1
    21    15    16   ar
    22    16    17   ar
    23    17    18   ar
    24    18    19   ar
    25     4     5    1
    26     5     6    1
    27    23    24   ar
    28    24    25   ar
    29    29    30   ar
    30    30    31   ar
    31    31    27   ar
    32    25    20   ar
    33     6     1    1
    34    19     7    1
    35    14     8   ar
    36    19    15   ar
@<TRIPOS>MOLECULE
*****
 31 36 0 0 0
SMALL
GASTEIGER

@<TRIPOS>ATOM
      1 N          60.0264   92.6902    2.3228 N.pl3   1  UNL1       -0.3075
      2 C          60.1290   94.1853    2.3844 C.3     1  UNL1        0.0908
      3 C          60.2040   94.9847    1.1173 C.3     1  UNL1        0.0237
      4 C          60.1763   94.2890   -0.2112 C.3     1  UNL1        0.0285
      5 C          60.0736   92.7937   -0.2728 C.3     1  UNL1        0.0237
      6 C          59.9987   91.9943    0.9942 C.3     1  UNL1        0.0908
      7 C          60.2513   95.0884   -1.4782 C.3     1  UNL1        0.1117
      8 C          59.0863   95.5179   -2.3200 C.ar    1  UNL1        0.0272
      9 C          57.6090   95.3029   -2.1738 C.ar    1  UNL1        0.1379
     10 F          57.0760   94.5272   -1.0059 F       1  UNL1       -0.2044
     11 C          56.6648   95.8636   -3.1957 C.ar    1  UNL1        0.0294
     12 C          57.1980   96.6392   -4.3636 C.ar    1  UNL1        0.0023
     13 C          58.6752   96.8543   -4.5097 C.ar    1  UNL1        0.0014
     14 C          59.6195   96.2936   -3.4880 C.ar    1  UNL1        0.0173
     15 C          61.1138   96.3435   -3.3681 C.ar    1  UNL1        0.0804
     16 C          62.3668   96.8537   -4.0158 C.ar    1  UNL1        0.1178
     17 N          63.5317   96.4242   -3.1741 N.ar    1  UNL1       -0.2223
     18 C          62.9987   95.6485   -2.0061 C.ar    1  UNL1        0.1788
     19 N          61.5043   95.5986   -2.1260 N.ar    1  UNL1       -0.3069
     20 C          59.8015   90.2920    6.1239 C.ar    1  UNL1        0.0031
     21 C          61.1191   90.4790    5.4320 C.ar    1  UNL1        0.0014
     22 C          61.1941   91.2784    4.1650 C.ar    1  UNL1        0.0145
     23 C          59.9514   91.8908    3.5899 C.ar    1  UNL1        0.0478
     24 C          58.6337   91.7037    4.2818 C.ar    1  UNL1        0.0145
     25 C          58.5587   90.9043    5.5488 C.ar    1  UNL1        0.0014
     26 C          60.1987   88.8645   11.1920 C.3     1  UNL1        0.1538
     27 N          59.9091   88.8365    9.7204 N.ar    1  UNL1       -0.2473
     28 C          60.1645   89.9515    8.7501 C.ar    1  UNL1        0.0967
     29 C          59.7265   89.4926    7.3909 C.ar    1  UNL1        0.0396
     30 C          59.2003   88.0939    7.5211 C.ar    1  UNL1        0.1216
     31 N          59.3132   87.6885    8.9608 N.ar    1  UNL1       -0.1676
@<TRIPOS>BOND
     1    26    27    1
     2    27    28   ar
     3    28    29   ar
     4    29    20    1
     5    20    21   ar
     6    21    22   ar
     7    22    23   ar
     8    23     1    1
     9     1     2    1
    10     2     3    1
    11     3     4    1
    12     4     7    1
    13     7     8    1
    14     8     9   ar
    15     9    10    1
    16     9    11   ar
    17    11    12   ar
    18    12    13   ar
    19    13    14   ar
    20    14    15    1
    21    15    16   ar
    22    16    17   ar
    23    17    18   ar
    24    18    19   ar
    25     4     5    1
    26     5     6    1
    27    23    24   ar
    28    24    25   ar
    29    29    30   ar
    30    30    31   ar
    31    31    27   ar
    32    25    20   ar
    33     6     1    1
    34    19     7    1
    35    14     8   ar
    36    19    15   ar
@<TRIPOS>MOLECULE
*****
 31 36 0 0 0
SMALL
GASTEIGER

@<TRIPOS>ATOM
      1 N          60.2552   92.7234    2.2344 N.pl3   1  UNL1       -0.3075
      2 C          60.5168   92.0227    0.9343 C.3     1  UNL1        0.0908
      3 C          60.6498   92.8160   -0.3318 C.3     1  UNL1        0.0237
      4 C          60.5211   94.3100   -0.2977 C.3     1  UNL1        0.0285
      5 C          60.2594   95.0108    1.0025 C.3     1  UNL1        0.0237
      6 C          60.1265   94.2175    2.2686 C.3     1  UNL1        0.0908
      7 C          60.6540   95.1033   -1.5638 C.3     1  UNL1        0.1117
      8 C          61.9408   95.5296   -2.2062 C.ar    1  UNL1        0.0272
      9 C          63.3744   95.3163   -1.8199 C.ar    1  UNL1        0.1379
     10 F          63.7096   94.5465   -0.5770 F       1  UNL1       -0.2044
     11 C          64.4728   95.8727   -2.6767 C.ar    1  UNL1        0.0294
     12 C          64.1374   96.6425   -3.9196 C.ar    1  UNL1        0.0023
     13 C          62.7039   96.8558   -4.3059 C.ar    1  UNL1        0.0014
     14 C          61.6055   96.2994   -3.4493 C.ar    1  UNL1        0.0173
     15 C          60.1116   96.3489   -3.5751 C.ar    1  UNL1        0.0804
     16 C          58.9811   96.8552   -4.4211 C.ar    1  UNL1        0.1178
     17 N          57.6944   96.4290   -3.7787 N.ar    1  UNL1       -0.2223
     18 C          58.0297   95.6592   -2.5356 C.ar    1  UNL1        0.1788
     19 N          59.5235   95.6097   -2.4098 N.ar    1  UNL1       -0.3069
     20 C          59.8565   90.3435    6.0327 C.ar    1  UNL1        0.0031
     21 C          61.1926   90.4682    5.3626 C.ar    1  UNL1        0.0014
     22 C          61.3255   91.2615    4.0965 C.ar    1  UNL1        0.0145
     23 C          60.1223   91.9301    3.5005 C.ar    1  UNL1        0.0478
     24 C          58.7861   91.8053    4.1707 C.ar    1  UNL1        0.0145
     25 C          58.6532   91.0120    5.4367 C.ar    1  UNL1        0.0014
     26 C          60.1072   88.9043   11.1069 C.3     1  UNL1        0.1538
     27 N          59.8388   88.8887    9.6311 N.ar    1  UNL1       -0.2473
     28 C          60.1628   89.9888    8.6642 C.ar    1  UNL1        0.0967
     29 C          59.7236   89.5501    7.2988 C.ar    1  UNL1        0.0396
     30 C          59.1280   88.1789    7.4216 C.ar    1  UNL1        0.1216
     31 N          59.1993   87.7701    8.8631 N.ar    1  UNL1       -0.1676
@<TRIPOS>BOND
     1    26    27    1
     2    27    28   ar
     3    28    29   ar
     4    29    20    1
     5    20    21   ar
     6    21    22   ar
     7    22    23   ar
     8    23     1    1
     9     1     2    1
    10     2     3    1
    11     3     4    1
    12     4     7    1
    13     7     8    1
    14     8     9   ar
    15     9    10    1
    16     9    11   ar
    17    11    12   ar
    18    12    13   ar
    19    13    14   ar
    20    14    15    1
    21    15    16   ar
    22    16    17   ar
    23    17    18   ar
    24    18    19   ar
    25     4     5    1
    26     5     6    1
    27    23    24   ar
    28    24    25   ar
    29    29    30   ar
    30    30    31   ar
    31    31    27   ar
    32    25    20   ar
    33     6     1    1
    34    19     7    1
    35    14     8   ar
    36    19    15   ar
@<TRIPOS>MOLECULE
*****
 31 36 0 0 0
SMALL
GASTEIGER

@<TRIPOS>ATOM
      1 N          63.8781   87.2424   13.7336 N.pl3   1  UNL1       -0.3075
      2 C          63.4509   88.1805   12.6439 C.3     1  UNL1        0.0908
      3 C          63.9926   89.5787   12.6028 C.3     1  UNL1        0.0237
      4 C          64.9615   90.0387   13.6514 C.3     1  UNL1        0.0285
      5 C          65.3888   89.1006   14.7411 C.3     1  UNL1        0.0237
      6 C          64.8471   87.7024   14.7822 C.3     1  UNL1        0.0908
      7 C          65.5033   91.4369   13.6103 C.3     1  UNL1        0.1117
      8 C          65.4286   92.3775   12.4441 C.ar    1  UNL1        0.0272
      9 C          64.8408   92.2303   11.0720 C.ar    1  UNL1        0.1379
     10 F          64.1755   90.9460   10.6749 F       1  UNL1       -0.2044
     11 C          64.9183   93.3676   10.0969 C.ar    1  UNL1        0.0294
     12 C          65.5836   94.6519   10.4941 C.ar    1  UNL1        0.0023
     13 C          66.1715   94.7991   11.8662 C.ar    1  UNL1        0.0014
     14 C          66.0940   93.6619   12.8413 C.ar    1  UNL1        0.0173
     15 C          66.5798   93.5151   14.2528 C.ar    1  UNL1        0.0804
     16 C          67.2912   94.2182   15.3706 C.ar    1  UNL1        0.1178
     17 N          67.3659   93.2777   16.5367 N.ar    1  UNL1       -0.2223
     18 C          66.7005   91.9933   16.1396 C.ar    1  UNL1        0.1788
     19 N          66.2147   92.1400   14.7281 N.ar    1  UNL1       -0.3069
     20 C          62.2529   83.0479   13.8569 C.ar    1  UNL1        0.0031
     21 C          62.6486   83.7367   15.1293 C.ar    1  UNL1        0.0014
     22 C          63.1903   85.1348   15.0882 C.ar    1  UNL1        0.0145
     23 C          63.3364   85.8443   13.7747 C.ar    1  UNL1        0.0478
     24 C          62.9407   85.1555   12.5022 C.ar    1  UNL1        0.0145
     25 C          62.3990   83.7574   12.5433 C.ar    1  UNL1        0.0014
     26 C          58.9688   78.9487   14.3966 C.3     1  UNL1        0.1538
     27 N          60.2017   79.7656   14.1461 N.ar    1  UNL1       -0.2473
     28 C          60.2992   81.2606   14.2212 C.ar    1  UNL1        0.0967
     29 C          61.7112   81.6498   13.8980 C.ar    1  UNL1        0.0396
     30 C          62.4866   80.3955   13.6231 C.ar    1  UNL1        0.1216
     31 N          61.5536   79.2310   13.7764 N.ar    1  UNL1       -0.1676
@<TRIPOS>BOND
     1    26    27    1
     2    27    28   ar
     3    28    29   ar
     4    29    20    1
     5    20    21   ar
     6    21    22   ar
     7    22    23   ar
     8    23     1    1
     9     1     2    1
    10     2     3    1
    11     3     4    1
    12     4     7    1
    13     7     8    1
    14     8     9   ar
    15     9    10    1
    16     9    11   ar
    17    11    12   ar
    18    12    13   ar
    19    13    14   ar
    20    14    15    1
    21    15    16   ar
    22    16    17   ar
    23    17    18   ar
    24    18    19   ar
    25     4     5    1
    26     5     6    1
    27    23    24   ar
    28    24    25   ar
    29    29    30   ar
    30    30    31   ar
    31    31    27   ar
    32    25    20   ar
    33     6     1    1
    34    19     7    1
    35    14     8   ar
    36    19    15   ar
@<TRIPOS>MOLECULE
*****
 31 36 0 0 0
SMALL
GASTEIGER

@<TRIPOS>ATOM
      1 N          61.2072   87.0408    9.8375 N.pl3   1  UNL1       -0.3075
      2 C          60.7815   87.2291   11.2634 C.3     1  UNL1        0.0908
      3 C          61.3136   86.3201   12.3313 C.3     1  UNL1        0.0237
      4 C          62.2715   85.2227   11.9734 C.3     1  UNL1        0.0285
      5 C          62.6973   85.0344   10.5475 C.3     1  UNL1        0.0237
      6 C          62.1652   85.9434    9.4795 C.3     1  UNL1        0.0908
      7 C          62.8036   84.3137   13.0414 C.3     1  UNL1        0.1117
      8 C          62.8726   82.8169   12.9713 C.ar    1  UNL1        0.0272
      9 C          62.4672   81.8422   11.9056 C.ar    1  UNL1        0.1379
     10 F          61.8680   82.3391   10.6235 F       1  UNL1       -0.2044
     11 C          62.6610   80.3706   12.1222 C.ar    1  UNL1        0.0294
     12 C          63.2602   79.8738   13.4044 C.ar    1  UNL1        0.0023
     13 C          63.6656   80.8485   14.4701 C.ar    1  UNL1        0.0014
     14 C          63.4718   82.3200   14.2536 C.ar    1  UNL1        0.0173
     15 C          63.7732   83.5097   15.1161 C.ar    1  UNL1        0.0804
     16 C          64.3297   83.9379   16.4415 C.ar    1  UNL1        0.1178
     17 N          64.2607   85.4346   16.5115 N.ar    1  UNL1       -0.2223
     18 C          63.6615   85.9315   15.2293 C.ar    1  UNL1        0.1788
     19 N          63.3602   84.7419   14.3669 N.ar    1  UNL1       -0.3069
     20 C          59.6109   89.7678    6.6336 C.ar    1  UNL1        0.0031
     21 C          60.3775   90.3377    7.7901 C.ar    1  UNL1        0.0014
     22 C          60.9096   89.4287    8.8581 C.ar    1  UNL1        0.0145
     23 C          60.6751   87.9498    8.7695 C.ar    1  UNL1        0.0478
     24 C          59.9084   87.3799    7.6130 C.ar    1  UNL1        0.0145
     25 C          59.3763   88.2889    6.5451 C.ar    1  UNL1        0.0014
     26 C          59.3451   93.0428    2.5002 C.3     1  UNL1        0.1538
     27 N          58.9566   92.1821    3.6658 N.ar    1  UNL1       -0.2473
     28 C          59.8932   91.3834    4.5230 C.ar    1  UNL1        0.0967
     29 C          59.0787   90.6768    5.5657 C.ar    1  UNL1        0.0396
     30 C          57.6387   91.0388    5.3530 C.ar    1  UNL1        0.1216
     31 N          57.5632   91.9691    4.1788 N.ar    1  UNL1       -0.1676
@<TRIPOS>BOND
     1    26    27    1
     2    27    28   ar
     3    28    29   ar
     4    29    20    1
     5    20    21   ar
     6    21    22   ar
     7    22    23   ar
     8    23     1    1
     9     1     2    1
    10     2     3    1
    11     3     4    1
    12     4     7    1
    13     7     8    1
    14     8     9   ar
    15     9    10    1
    16     9    11   ar
    17    11    12   ar
    18    12    13   ar
    19    13    14   ar
    20    14    15    1
    21    15    16   ar
    22    16    17   ar
    23    17    18   ar
    24    18    19   ar
    25     4     5    1
    26     5     6    1
    27    23    24   ar
    28    24    25   ar
    29    29    30   ar
    30    30    31   ar
    31    31    27   ar
    32    25    20   ar
    33     6     1    1
    34    19     7    1
    35    14     8   ar
    36    19    15   ar
