@<TRIPOS>MOLECULE
*****
 35 37 0 0 0
SMALL
GASTEIGER

@<TRIPOS>ATOM
      1 C          62.9641   84.3414   10.7513 C.3     1  UNL1        0.1326
      2 C          62.8468   83.0659    9.9705 C.3     1  UNL1        0.0276
      3 C          63.0822   81.6596   10.4359 C.3     1  UNL1        0.0042
      4 C          63.4931   81.1811   11.7969 C.3     1  UNL1        0.0247
      5 C          63.7701   81.9910   13.0287 C.3     1  UNL1        0.1103
      6 N          63.7046   83.4794   13.2037 N.ar    1  UNL1       -0.2802
      7 C          63.3459   84.5253   12.1903 C.ar    1  UNL1        0.1410
      8 N          63.3417   85.9745   12.5773 N.ar    1  UNL1       -0.2228
      9 C          63.6962   86.3777   13.9779 C.ar    1  UNL1        0.1740
     10 C          64.0549   85.3317   14.9915 C.ar    1  UNL1        0.2130
     11 O          64.4094   85.7349   16.3921 O.3     1  UNL1       -0.5006
     12 C          64.0591   83.8825   14.6044 C.ar    1  UNL1        0.2973
     13 O          64.4178   82.8365   15.6179 O.2     1  UNL1       -0.2636
     14 H          64.4068   86.6401   16.6339 H       1  UNL1        0.2924
     15 C          61.6409   86.5653   10.5210 C.2     1  UNL1        0.3032
     16 O          60.9269   86.2738   11.8076 O.2     1  UNL1       -0.2649
     17 N          62.6594   85.5991    9.9928 N.am    1  UNL1       -0.2654
     18 C          63.3733   85.8907    8.7063 C.3     1  UNL1        0.1157
     19 C          59.9792   89.0757    7.9350 C.3     1  UNL1        0.1154
     20 N          60.2839   87.8179    8.6935 N.am    1  UNL1       -0.2688
     21 C          59.5364   86.5551    8.3829 C.3     1  UNL1        0.1154
     22 C          61.3362   87.8230    9.7625 C.2     1  UNL1        0.3030
     23 O          62.0837   89.0858   10.0731 O.2     1  UNL1       -0.2649
     24 C          63.6920   87.8269   14.3651 C.2     1  UNL1        0.2671
     25 O          63.6342   88.2163   15.8125 O.2     1  UNL1       -0.2684
     26 N          63.7456   88.8866   13.3049 N.am    1  UNL1       -0.2956
     27 H          63.7836   88.6310   12.3549 H       1  UNL1        0.1501
     28 C          63.7414   90.3358   13.6921 C.3     1  UNL1        0.1166
     29 C          64.5699   91.3205   12.9212 C.ar    1  UNL1       -0.0024
     30 C          64.2560   91.5997   11.4813 C.ar    1  UNL1       -0.0003
     31 C          65.0845   92.5843   10.7105 C.ar    1  UNL1        0.0294
     32 C          66.2268   93.2897   11.3797 C.ar    1  UNL1        0.1401
     33 F          67.0552   94.2743   10.6088 F       1  UNL1       -0.2042
     34 C          66.5405   93.0105   12.8197 C.ar    1  UNL1        0.0294
     35 C          65.7121   92.0258   13.5905 C.ar    1  UNL1       -0.0003
@<TRIPOS>BOND
     1    19    20    1
     2    20    21    1
     3    20    22   am
     4    22    23    2
     5    22    15    1
     6    15    16    2
     7    15    17   am
     8    17    18    1
     9     1    17    1
    10     1     2    1
    11     2     3    1
    12     3     4    1
    13     4     5    1
    14     5     6    1
    15     6     7   ar
    16     7     8   ar
    17     8     9   ar
    18     9    24    1
    19    24    25    2
    20    24    26   am
    21    26    28    1
    22    28    29    1
    23    29    30   ar
    24    30    31   ar
    25    31    32   ar
    26    32    33    1
    27    32    34   ar
    28    34    35   ar
    29     9    10   ar
    30    10    11    1
    31    10    12   ar
    32    12    13    2
    33     7     1    1
    34    35    29   ar
    35    12     6   ar
    36    26    27    1
    37    11    14    1
@<TRIPOS>MOLECULE
*****
 35 37 0 0 0
SMALL
GASTEIGER

@<TRIPOS>ATOM
      1 C          62.4383   85.7174   11.1205 C.3     1  UNL1        0.1326
      2 C          62.1814   84.2501   10.9437 C.3     1  UNL1        0.0276
      3 C          62.4912   83.1261   11.8873 C.3     1  UNL1        0.0042
      4 C          63.1344   83.1915   13.2409 C.3     1  UNL1        0.0247
      5 C          63.6266   84.3973   13.9851 C.3     1  UNL1        0.1103
      6 N          63.5972   85.8354   13.5595 N.ar    1  UNL1       -0.2802
      7 C          63.0685   86.4229   12.2848 C.ar    1  UNL1        0.1410
      8 N          63.1367   87.9038   12.0564 N.ar    1  UNL1       -0.2228
      9 C          63.7339   88.7973   13.1029 C.ar    1  UNL1        0.1740
     10 C          64.2627   88.2098   14.3777 C.ar    1  UNL1        0.2130
     11 O          64.8599   89.1032   15.4242 O.3     1  UNL1       -0.5006
     12 C          64.1944   86.7288   14.6061 C.ar    1  UNL1        0.2973
     13 O          64.7232   86.1413   15.8809 O.2     1  UNL1       -0.2636
     14 H          64.9025   90.0283   15.2817 H       1  UNL1        0.2924
     15 C          60.8797   87.5655   10.1692 C.2     1  UNL1        0.3032
     16 O          60.1812   87.6581   11.4935 O.2     1  UNL1       -0.2649
     17 N          62.0083   86.5952    9.9828 N.am    1  UNL1       -0.2654
     18 C          62.7067   86.5027    8.6586 C.3     1  UNL1        0.1157
     19 C          59.1261   88.7737    6.8203 C.3     1  UNL1        0.1154
     20 N          59.5562   87.8959    7.9581 N.am    1  UNL1       -0.2688
     21 C          59.0928   86.4708    8.0225 C.3     1  UNL1        0.1154
     22 C          60.4497   88.4433    9.0315 C.2     1  UNL1        0.3030
     23 O          60.9130   89.8685    8.9671 O.2     1  UNL1       -0.2649
     24 C          63.8022   90.2782   12.8746 C.2     1  UNL1        0.2671
     25 O          62.6243   91.0026   12.2933 O.2     1  UNL1       -0.2684
     26 N          65.0483   91.0348   13.2276 N.am    1  UNL1       -0.2956
     27 H          65.8214   90.5594   13.6091 H       1  UNL1        0.1501
     28 C          65.1166   92.5158   12.9992 C.3     1  UNL1        0.1166
     29 C          65.9124   93.0617   11.8508 C.ar    1  UNL1       -0.0024
     30 C          65.8390   94.5216   11.5143 C.ar    1  UNL1       -0.0003
     31 C          66.6348   95.0674   10.3659 C.ar    1  UNL1        0.0294
     32 C          67.5039   94.1532    9.5540 C.ar    1  UNL1        0.1401
     33 F          68.2996   94.6991    8.4056 F       1  UNL1       -0.2042
     34 C          67.5772   92.6933    9.8905 C.ar    1  UNL1        0.0294
     35 C          66.7814   92.1475   11.0390 C.ar    1  UNL1       -0.0003
@<TRIPOS>BOND
     1    19    20    1
     2    20    21    1
     3    20    22   am
     4    22    23    2
     5    22    15    1
     6    15    16    2
     7    15    17   am
     8    17    18    1
     9     1    17    1
    10     1     2    1
    11     2     3    1
    12     3     4    1
    13     4     5    1
    14     5     6    1
    15     6     7   ar
    16     7     8   ar
    17     8     9   ar
    18     9    24    1
    19    24    25    2
    20    24    26   am
    21    26    28    1
    22    28    29    1
    23    29    30   ar
    24    30    31   ar
    25    31    32   ar
    26    32    33    1
    27    32    34   ar
    28    34    35   ar
    29     9    10   ar
    30    10    11    1
    31    10    12   ar
    32    12    13    2
    33     7     1    1
    34    35    29   ar
    35    12     6   ar
    36    26    27    1
    37    11    14    1
@<TRIPOS>MOLECULE
*****
 35 37 0 0 0
SMALL
GASTEIGER

@<TRIPOS>ATOM
      1 C          64.6156   90.9049   15.0522 C.3     1  UNL1        0.1326
      2 C          65.5580   91.6057   15.9855 C.3     1  UNL1        0.0276
      3 C          66.4794   92.7534   15.6964 C.3     1  UNL1        0.0042
      4 C          66.6862   93.4839   14.4027 C.3     1  UNL1        0.0247
      5 C          66.0225   93.2470   13.0786 C.3     1  UNL1        0.1103
      6 N          64.9881   92.2212   12.7211 N.ar    1  UNL1       -0.2802
      7 C          64.3621   91.1789   13.5994 C.ar    1  UNL1        0.1410
      8 N          63.3357   90.2412   13.0360 N.ar    1  UNL1       -0.2228
      9 C          62.9354   90.3460   11.5941 C.ar    1  UNL1        0.1740
     10 C          63.5615   91.3883   10.7158 C.ar    1  UNL1        0.2130
     11 O          63.1613   91.4931    9.2740 O.3     1  UNL1       -0.5006
     12 C          64.5879   92.3260   11.2792 C.ar    1  UNL1        0.2973
     13 O          65.2140   93.3683   10.4009 O.2     1  UNL1       -0.2636
     14 H          62.5202   90.9074    8.9220 H       1  UNL1        0.2924
     15 C          64.2248   88.3595   15.3959 C.2     1  UNL1        0.3032
     16 O          65.4213   88.0605   14.5421 O.2     1  UNL1       -0.2649
     17 N          63.8220   89.7817   15.6509 N.am    1  UNL1       -0.2654
     18 C          62.6255   90.0806   16.5047 C.3     1  UNL1        0.1157
     19 C          62.6216   84.7684   15.9287 C.3     1  UNL1        0.1154
     20 N          63.4152   85.8916   15.3299 N.am    1  UNL1       -0.2688
     21 C          64.1931   85.6702   14.0667 C.3     1  UNL1        0.1154
     22 C          63.4311   87.2363   15.9946 C.2     1  UNL1        0.3030
     23 O          62.6532   87.4577   17.2579 O.2     1  UNL1       -0.2649
     24 C          61.9091   89.4084   11.0306 C.2     1  UNL1        0.2671
     25 O          60.8202   89.9341   10.1429 O.2     1  UNL1       -0.2684
     26 N          61.9716   87.9452   11.3548 N.am    1  UNL1       -0.2956
     27 H          62.6862   87.6002   11.9374 H       1  UNL1        0.1501
     28 C          60.9451   87.0077   10.7912 C.3     1  UNL1        0.1166
     29 C          61.1952   86.3216    9.4809 C.ar    1  UNL1       -0.0024
     30 C          60.1031   86.2414    8.4559 C.ar    1  UNL1       -0.0003
     31 C          60.3532   85.5553    7.1456 C.ar    1  UNL1        0.0294
     32 C          61.6955   84.9495    6.8605 C.ar    1  UNL1        0.1401
     33 F          61.9456   84.2634    5.5502 F       1  UNL1       -0.2042
     34 C          62.7877   85.0297    7.8856 C.ar    1  UNL1        0.0294
     35 C          62.5375   85.7158    9.1958 C.ar    1  UNL1       -0.0003
@<TRIPOS>BOND
     1    19    20    1
     2    20    21    1
     3    20    22   am
     4    22    23    2
     5    22    15    1
     6    15    16    2
     7    15    17   am
     8    17    18    1
     9     1    17    1
    10     1     2    1
    11     2     3    1
    12     3     4    1
    13     4     5    1
    14     5     6    1
    15     6     7   ar
    16     7     8   ar
    17     8     9   ar
    18     9    24    1
    19    24    25    2
    20    24    26   am
    21    26    28    1
    22    28    29    1
    23    29    30   ar
    24    30    31   ar
    25    31    32   ar
    26    32    33    1
    27    32    34   ar
    28    34    35   ar
    29     9    10   ar
    30    10    11    1
    31    10    12   ar
    32    12    13    2
    33     7     1    1
    34    35    29   ar
    35    12     6   ar
    36    26    27    1
    37    11    14    1
@<TRIPOS>MOLECULE
*****
 35 37 0 0 0
SMALL
GASTEIGER

@<TRIPOS>ATOM
      1 C          62.9680   84.4269   10.7320 C.3     1  UNL1        0.1326
      2 C          62.8690   83.1314    9.9823 C.3     1  UNL1        0.0276
      3 C          63.1318   81.7408   10.4793 C.3     1  UNL1        0.0042
      4 C          63.5584   81.3021   11.8488 C.3     1  UNL1        0.0247
      5 C          63.8276   82.1457   13.0595 C.3     1  UNL1        0.1103
      6 N          63.7367   83.6363   13.1997 N.ar    1  UNL1       -0.2802
      7 C          63.3541   84.6515   12.1640 C.ar    1  UNL1        0.1410
      8 N          63.3263   86.1092   12.5168 N.ar    1  UNL1       -0.2228
      9 C          63.6811   86.5516   13.9054 C.ar    1  UNL1        0.1740
     10 C          64.0637   85.5364   14.9413 C.ar    1  UNL1        0.2130
     11 O          64.4185   85.9788   16.3299 O.3     1  UNL1       -0.5006
     12 C          64.0915   84.0787   14.5885 C.ar    1  UNL1        0.2973
     13 O          64.4741   83.0635   15.6243 O.2     1  UNL1       -0.2636
     14 H          64.4012   86.8893   16.5504 H       1  UNL1        0.2924
     15 C          61.5918   86.6122   10.4481 C.2     1  UNL1        0.3032
     16 O          60.8774   86.3297   11.7366 O.2     1  UNL1       -0.2649
     17 N          62.6370   85.6608    9.9459 N.am    1  UNL1       -0.2654
     18 C          63.3512   85.9432    8.6575 C.3     1  UNL1        0.1157
     19 C          59.8998   89.0216    7.7870 C.3     1  UNL1        0.1154
     20 N          60.2307   87.7877    8.5731 N.am    1  UNL1       -0.2688
     21 C          59.5317   86.4956    8.2704 C.3     1  UNL1        0.1154
     22 C          61.2608   87.8460    9.6620 C.2     1  UNL1        0.3030
     23 O          61.9598   89.1382    9.9647 O.2     1  UNL1       -0.2649
     24 C          63.6534   88.0093   14.2583 C.2     1  UNL1        0.2671
     25 O          63.5998   88.4318   15.6966 O.2     1  UNL1       -0.2684
     26 N          63.6792   89.0443   13.1730 N.am    1  UNL1       -0.2956
     27 H          63.7144   88.7670   12.2291 H       1  UNL1        0.1501
     28 C          63.6514   90.5020   13.5260 C.3     1  UNL1        0.1166
     29 C          64.9240   91.2116   13.8827 C.ar    1  UNL1       -0.0024
     30 C          65.9010   91.5853   12.8076 C.ar    1  UNL1       -0.0003
     31 C          67.1735   92.2949   13.1644 C.ar    1  UNL1        0.0294
     32 C          67.4689   92.6308   14.5962 C.ar    1  UNL1        0.1401
     33 F          68.7413   93.3404   14.9528 F       1  UNL1       -0.2042
     34 C          66.4918   92.2571   15.6712 C.ar    1  UNL1        0.0294
     35 C          65.2193   91.5475   15.3144 C.ar    1  UNL1       -0.0003
@<TRIPOS>BOND
     1    19    20    1
     2    20    21    1
     3    20    22   am
     4    22    23    2
     5    22    15    1
     6    15    16    2
     7    15    17   am
     8    17    18    1
     9     1    17    1
    10     1     2    1
    11     2     3    1
    12     3     4    1
    13     4     5    1
    14     5     6    1
    15     6     7   ar
    16     7     8   ar
    17     8     9   ar
    18     9    24    1
    19    24    25    2
    20    24    26   am
    21    26    28    1
    22    28    29    1
    23    29    30   ar
    24    30    31   ar
    25    31    32   ar
    26    32    33    1
    27    32    34   ar
    28    34    35   ar
    29     9    10   ar
    30    10    11    1
    31    10    12   ar
    32    12    13    2
    33     7     1    1
    34    35    29   ar
    35    12     6   ar
    36    26    27    1
    37    11    14    1
@<TRIPOS>MOLECULE
*****
 35 37 0 0 0
SMALL
GASTEIGER

@<TRIPOS>ATOM
      1 C          62.7882   83.7931   14.1748 C.3     1  UNL1        0.1326
      2 C          63.0141   82.4246   14.7460 C.3     1  UNL1        0.0276
      3 C          63.3215   81.1478   14.0214 C.3     1  UNL1        0.0042
      4 C          63.4790   80.9239   12.5466 C.3     1  UNL1        0.0247
      5 C          63.3680   81.9218   11.4321 C.3     1  UNL1        0.1103
      6 N          63.0721   83.3898   11.5173 N.ar    1  UNL1       -0.2802
      7 C          62.8140   84.2226   12.7377 C.ar    1  UNL1        0.1410
      8 N          62.5354   85.6900   12.5994 N.ar    1  UNL1       -0.2228
      9 C          62.5148   86.3246   11.2404 C.ar    1  UNL1        0.1740
     10 C          62.7728   85.4918   10.0198 C.ar    1  UNL1        0.2130
     11 O          62.7522   86.1263    8.6608 O.3     1  UNL1       -0.5006
     12 C          63.0515   84.0244   10.1582 C.ar    1  UNL1        0.2973
     13 O          63.3095   83.1916    8.9376 O.2     1  UNL1       -0.2636
     14 H          62.5782   87.0429    8.5742 H       1  UNL1        0.2924
     15 C          63.6147   85.7241   15.7038 C.2     1  UNL1        0.3032
     16 O          65.0214   85.4911   15.2377 O.2     1  UNL1       -0.2649
     17 N          62.4982   84.8751   15.1724 N.am    1  UNL1       -0.2654
     18 C          61.0917   85.1081   15.6385 C.3     1  UNL1        0.1157
     19 C          63.2272   89.3271   17.3219 C.3     1  UNL1        0.1154
     20 N          63.5172   88.2451   16.3243 N.am    1  UNL1       -0.2688
     21 C          63.9995   88.6021   14.9496 C.3     1  UNL1        0.1154
     22 C          63.3247   86.8061   16.7014 C.2     1  UNL1        0.3030
     23 O          62.8423   86.4490   18.0761 O.2     1  UNL1       -0.2649
     24 C          62.2362   87.7920   11.1019 C.2     1  UNL1        0.2671
     25 O          61.4049   88.2928    9.9581 O.2     1  UNL1       -0.2684
     26 N          62.7887   88.7584   12.1071 N.am    1  UNL1       -0.2956
     27 H          63.3343   88.4297   12.8578 H       1  UNL1        0.1501
     28 C          62.5100   90.2258   11.9685 C.3     1  UNL1        0.1166
     29 C          63.6469   91.1970   11.8481 C.ar    1  UNL1       -0.0024
     30 C          63.9303   91.8605   10.5330 C.ar    1  UNL1       -0.0003
     31 C          65.0672   92.8317   10.4127 C.ar    1  UNL1        0.0294
     32 C          65.9205   93.1393   11.6074 C.ar    1  UNL1        0.1401
     33 F          67.0573   94.1104   11.4869 F       1  UNL1       -0.2042
     34 C          65.6370   92.4757   12.9224 C.ar    1  UNL1        0.0294
     35 C          64.5001   91.5046   13.0428 C.ar    1  UNL1       -0.0003
@<TRIPOS>BOND
     1    19    20    1
     2    20    21    1
     3    20    22   am
     4    22    23    2
     5    22    15    1
     6    15    16    2
     7    15    17   am
     8    17    18    1
     9     1    17    1
    10     1     2    1
    11     2     3    1
    12     3     4    1
    13     4     5    1
    14     5     6    1
    15     6     7   ar
    16     7     8   ar
    17     8     9   ar
    18     9    24    1
    19    24    25    2
    20    24    26   am
    21    26    28    1
    22    28    29    1
    23    29    30   ar
    24    30    31   ar
    25    31    32   ar
    26    32    33    1
    27    32    34   ar
    28    34    35   ar
    29     9    10   ar
    30    10    11    1
    31    10    12   ar
    32    12    13    2
    33     7     1    1
    34    35    29   ar
    35    12     6   ar
    36    26    27    1
    37    11    14    1
@<TRIPOS>MOLECULE
*****
 35 37 0 0 0
SMALL
GASTEIGER

@<TRIPOS>ATOM
      1 C          62.0223   85.7310    9.7596 C.3     1  UNL1        0.1326
      2 C          61.4265   85.0478    8.5644 C.3     1  UNL1        0.0276
      3 C          60.4848   85.6077    7.5400 C.3     1  UNL1        0.0042
      4 C          59.9061   86.9891    7.4575 C.3     1  UNL1        0.0247
      5 C          60.1264   88.1519    8.3792 C.3     1  UNL1        0.1103
      6 N          60.9797   88.2203    9.6110 N.ar    1  UNL1       -0.2802
      7 C          61.8234   87.1430   10.2253 C.ar    1  UNL1        0.1410
      8 N          62.6078   87.4242   11.4726 N.ar    1  UNL1       -0.2228
      9 C          62.5483   88.7828   12.1056 C.ar    1  UNL1        0.1740
     10 C          61.7046   89.8602   11.4913 C.ar    1  UNL1        0.2130
     11 O          61.6451   91.2188   12.1242 O.3     1  UNL1       -0.5006
     12 C          60.9202   89.5790   10.2440 C.ar    1  UNL1        0.2973
     13 O          60.0765   90.6563    9.6297 O.2     1  UNL1       -0.2636
     14 H          62.1350   91.3945   12.9034 H       1  UNL1        0.2924
     15 C          62.6615   84.7150   12.0637 C.2     1  UNL1        0.3032
     16 O          61.4692   85.3784   12.6870 O.2     1  UNL1       -0.2649
     17 N          62.9381   84.8914   10.6000 N.am    1  UNL1       -0.2654
     18 C          64.1303   84.2280    9.9768 C.3     1  UNL1        0.1157
     19 C          64.3231   81.5457   13.7797 C.3     1  UNL1        0.1154
     20 N          63.4074   82.3854   12.9392 N.am    1  UNL1       -0.2688
     21 C          62.3218   81.7351   12.1338 C.3     1  UNL1        0.1154
     22 C          63.5773   83.8753   12.9042 C.2     1  UNL1        0.3030
     23 O          64.6628   84.5256   13.7095 O.2     1  UNL1       -0.2649
     24 C          63.3326   89.0641   13.3529 C.2     1  UNL1        0.2671
     25 O          64.1358   87.9726   13.9959 O.2     1  UNL1       -0.2684
     26 N          63.3137   90.4368   13.9572 N.am    1  UNL1       -0.2956
     27 H          62.7866   91.1532   13.5352 H       1  UNL1        0.1501
     28 C          64.0981   90.7180   15.2045 C.3     1  UNL1        0.1166
     29 C          65.4293   91.4035   15.1148 C.ar    1  UNL1       -0.0024
     30 C          66.3083   91.1812   13.9197 C.ar    1  UNL1       -0.0003
     31 C          67.6395   91.8667   13.8301 C.ar    1  UNL1        0.0294
     32 C          68.0917   92.7744   14.9354 C.ar    1  UNL1        0.1401
     33 F          69.4229   93.4598   14.8456 F       1  UNL1       -0.2042
     34 C          67.2127   92.9966   16.1304 C.ar    1  UNL1        0.0294
     35 C          65.8815   92.3111   16.2201 C.ar    1  UNL1       -0.0003
@<TRIPOS>BOND
     1    19    20    1
     2    20    21    1
     3    20    22   am
     4    22    23    2
     5    22    15    1
     6    15    16    2
     7    15    17   am
     8    17    18    1
     9     1    17    1
    10     1     2    1
    11     2     3    1
    12     3     4    1
    13     4     5    1
    14     5     6    1
    15     6     7   ar
    16     7     8   ar
    17     8     9   ar
    18     9    24    1
    19    24    25    2
    20    24    26   am
    21    26    28    1
    22    28    29    1
    23    29    30   ar
    24    30    31   ar
    25    31    32   ar
    26    32    33    1
    27    32    34   ar
    28    34    35   ar
    29     9    10   ar
    30    10    11    1
    31    10    12   ar
    32    12    13    2
    33     7     1    1
    34    35    29   ar
    35    12     6   ar
    36    26    27    1
    37    11    14    1
