@<TRIPOS>MOLECULE
*****
 44 48 0 0 0
SMALL
GASTEIGER

@<TRIPOS>ATOM
      1 N          61.3823   87.8864   10.6750 N.ar    1  UNL1       -0.2252
      2 C          62.6307   88.6822   10.9166 C.ar    1  UNL1        0.1148
      3 C          62.3483   89.6661   12.0131 C.ar    1  UNL1        0.1134
      4 N          60.9254   89.4784   12.4491 N.ar    1  UNL1       -0.1318
      5 N          60.3284   88.3786   11.6221 N.ar    1  UNL1       -0.0638
      6 C          63.3184   90.6626   12.5748 C.3     1  UNL1        0.0813
      7 C          63.1296   91.5286   11.3648 C.3     1  UNL1        0.0220
      8 C          63.5073   89.7967   13.7849 C.3     1  UNL1        0.0187
      9 C          63.1466   90.1608   15.1947 C.3     1  UNL1        0.0017
     10 C          63.5064   89.0037   16.0789 C.3     1  UNL1        0.0001
     11 C          64.0893   87.9244   15.2155 C.3     1  UNL1        0.0001
     12 C          64.0899   88.4145   13.7978 C.3     1  UNL1        0.0017
     13 N          64.2886   91.6592   13.1366 N.3     1  UNL1       -0.2914
     14 H          64.2411   91.5761   14.1521 H       1  UNL1        0.1238
     15 C          65.7395   91.5859   12.7635 C.3     1  UNL1        0.0958
     16 C          66.2780   92.4610   11.6705 C.ar    1  UNL1       -0.0063
     17 C          67.4625   92.0134   10.8664 C.ar    1  UNL1       -0.0014
     18 C          68.0010   92.8883    9.7735 C.ar    1  UNL1        0.0188
     19 C          67.3548   94.2109    9.4846 C.ar    1  UNL1        0.0813
     20 N          67.8933   95.0858    8.3917 N.ar    1  UNL1       -0.2438
     21 C          67.2472   96.4084    8.1028 C.ar    1  UNL1        0.0988
     22 C          66.0627   96.8559    8.9069 C.ar    1  UNL1        0.0207
     23 C          65.5242   95.9810    9.9998 C.ar    1  UNL1        0.0031
     24 C          66.1703   94.6585   10.2887 C.ar    1  UNL1        0.0174
     25 C          65.6319   93.7835   11.3816 C.ar    1  UNL1       -0.0014
     26 C          61.2170   86.7909    9.6638 C.3     1  UNL1        0.1676
     27 C          62.3228   85.8020    9.4417 C.2     1  UNL1        0.2165
     28 O          62.7355   85.4394    8.0458 O.2     1  UNL1       -0.2901
     29 C          63.0158   85.1758   10.6153 C.3     1  UNL1        0.2712
     30 O          63.2872   83.7006   10.6264 O.3     1  UNL1       -0.4627
     31 C          62.9599   82.8870   11.8434 C.ar    1  UNL1        0.1981
     32 C          62.7933   81.4006   11.7292 C.ar    1  UNL1        0.2034
     33 F          62.9539   80.7280   10.3983 F       1  UNL1       -0.1985
     34 C          62.4660   80.5871   12.9462 C.ar    1  UNL1        0.1728
     35 F          62.2994   79.1007   12.8322 F       1  UNL1       -0.2016
     36 C          62.3054   81.2597   14.2772 C.ar    1  UNL1        0.0641
     37 C          62.4720   82.7461   14.3913 C.ar    1  UNL1        0.1728
     38 F          62.3114   83.4188   15.7224 F       1  UNL1       -0.2016
     39 C          62.7993   83.5597   13.1744 C.ar    1  UNL1        0.2034
     40 F          62.9659   85.0460   13.2885 F       1  UNL1       -0.1985
     41 C          59.9458   86.6843    8.8747 C.3     1  UNL1        0.0321
     42 C          59.7927   87.4475    7.5925 C.3     1  UNL1        0.0024
     43 C          59.3441   89.6842    6.3490 C.3     1  UNL1        0.0000
     44 C          59.4017   88.8953    7.6236 C.3     1  UNL1        0.0001
@<TRIPOS>BOND
     1    43    44    1
     2    44    42    1
     3    42    41    1
     4    41    26    1
     5    26    27    1
     6    27    28    2
     7    27    29    1
     8    29    30    1
     9    30    31    1
    10    31    32   ar
    11    32    33    1
    12    32    34   ar
    13    34    35    1
    14    34    36   ar
    15    36    37   ar
    16    37    38    1
    17    37    39   ar
    18    39    40    1
    19    26     1    1
    20     1     2   ar
    21     2     3   ar
    22     3     6    1
    23     6     7    1
    24     6    13    1
    25    13    15    1
    26    15    16    1
    27    16    17   ar
    28    17    18   ar
    29    18    19   ar
    30    19    20   ar
    31    20    21   ar
    32    21    22   ar
    33    22    23   ar
    34    23    24   ar
    35    24    25   ar
    36     6     8    1
    37     8     9    1
    38     9    10    1
    39    10    11    1
    40    11    12    1
    41     3     4   ar
    42     4     5   ar
    43    39    31   ar
    44     5     1   ar
    45    25    16   ar
    46    12     8    1
    47    24    19   ar
    48    13    14    1
@<TRIPOS>MOLECULE
*****
 44 48 0 0 0
SMALL
GASTEIGER

@<TRIPOS>ATOM
      1 N          61.6970   87.6238   10.2559 N.ar    1  UNL1       -0.2252
      2 C          62.7385   88.6867   10.4442 C.ar    1  UNL1        0.1148
      3 C          62.4475   89.3978   11.7325 C.ar    1  UNL1        0.1134
      4 N          61.2261   88.7745   12.3404 N.ar    1  UNL1       -0.1318
      5 N          60.7622   87.6781   11.4278 N.ar    1  UNL1       -0.0638
      6 C          63.2390   90.5330   12.3112 C.3     1  UNL1        0.0813
      7 C          63.0109   91.3295   11.0608 C.3     1  UNL1        0.0220
      8 C          63.4670   89.7365   13.5616 C.3     1  UNL1        0.0187
      9 C          64.0873   88.3727   13.6375 C.3     1  UNL1        0.0017
     10 C          64.1185   87.9572   15.0784 C.3     1  UNL1        0.0001
     11 C          63.5177   89.0641   15.8931 C.3     1  UNL1        0.0001
     12 C          63.1150   90.1638   14.9557 C.3     1  UNL1        0.0017
     13 N          64.0304   91.6681   12.8900 N.3     1  UNL1       -0.2914
     14 H          63.8454   91.6748   13.8930 H       1  UNL1        0.1238
     15 C          65.5208   91.7046   12.7243 C.3     1  UNL1        0.0958
     16 C          66.1343   92.5345   11.6357 C.ar    1  UNL1       -0.0063
     17 C          67.3424   92.0335   10.9012 C.ar    1  UNL1       -0.0014
     18 C          67.9559   92.8633    9.8126 C.ar    1  UNL1        0.0188
     19 C          67.3613   94.1942    9.4585 C.ar    1  UNL1        0.0813
     20 N          67.9748   95.0240    8.3700 N.ar    1  UNL1       -0.2438
     21 C          67.3802   96.3547    8.0159 C.ar    1  UNL1        0.0988
     22 C          66.1721   96.8557    8.7504 C.ar    1  UNL1        0.0207
     23 C          65.5586   96.0259    9.8389 C.ar    1  UNL1        0.0031
     24 C          66.1532   94.6951   10.1930 C.ar    1  UNL1        0.0174
     25 C          65.5397   93.8653   11.2816 C.ar    1  UNL1       -0.0014
     26 C          61.6061   86.6736    9.0989 C.3     1  UNL1        0.1676
     27 C          62.5397   85.5025    9.0150 C.2     1  UNL1        0.2165
     28 O          62.8231   84.8628    7.6881 O.2     1  UNL1       -0.2901
     29 C          63.1899   84.9711   10.2579 C.3     1  UNL1        0.2712
     30 O          63.3553   83.4920   10.4442 O.3     1  UNL1       -0.4627
     31 C          62.9648   82.8512   11.7429 C.ar    1  UNL1        0.1981
     32 C          62.7650   83.6964   12.9660 C.ar    1  UNL1        0.2034
     33 F          62.9557   85.1822   12.8902 F       1  UNL1       -0.1985
     34 C          62.3744   83.0555   14.2647 C.ar    1  UNL1        0.1728
     35 F          62.1745   83.9007   15.4878 F       1  UNL1       -0.2016
     36 C          62.1837   81.5697   14.3405 C.ar    1  UNL1        0.0641
     37 C          62.3835   80.7246   13.1175 C.ar    1  UNL1        0.1728
     38 F          62.1927   79.2386   13.1933 F       1  UNL1       -0.2016
     39 C          62.7740   81.3653   11.8187 C.ar    1  UNL1        0.2034
     40 F          62.9738   80.5201   10.5957 F       1  UNL1       -0.1985
     41 C          60.5817   86.8943    8.0257 C.3     1  UNL1        0.0321
     42 C          59.4877   87.9003    8.2286 C.3     1  UNL1        0.0024
     43 C          59.2306   89.5963    6.2773 C.3     1  UNL1        0.0000
     44 C          59.6384   89.2914    7.6883 C.3     1  UNL1        0.0001
@<TRIPOS>BOND
     1    43    44    1
     2    44    42    1
     3    42    41    1
     4    41    26    1
     5    26    27    1
     6    27    28    2
     7    27    29    1
     8    29    30    1
     9    30    31    1
    10    31    32   ar
    11    32    33    1
    12    32    34   ar
    13    34    35    1
    14    34    36   ar
    15    36    37   ar
    16    37    38    1
    17    37    39   ar
    18    39    40    1
    19    26     1    1
    20     1     2   ar
    21     2     3   ar
    22     3     6    1
    23     6     7    1
    24     6    13    1
    25    13    15    1
    26    15    16    1
    27    16    17   ar
    28    17    18   ar
    29    18    19   ar
    30    19    20   ar
    31    20    21   ar
    32    21    22   ar
    33    22    23   ar
    34    23    24   ar
    35    24    25   ar
    36     6     8    1
    37     8     9    1
    38     9    10    1
    39    10    11    1
    40    11    12    1
    41     3     4   ar
    42     4     5   ar
    43    39    31   ar
    44     5     1   ar
    45    25    16   ar
    46    12     8    1
    47    24    19   ar
    48    13    14    1
@<TRIPOS>MOLECULE
*****
 44 48 0 0 0
SMALL
GASTEIGER

@<TRIPOS>ATOM
      1 N          63.8813   86.6213   14.3071 N.ar    1  UNL1       -0.2252
      2 C          64.2470   87.8216   13.4851 C.ar    1  UNL1        0.1148
      3 C          64.1050   89.0377   14.3517 C.ar    1  UNL1        0.1134
      4 N          63.6515   88.5890   15.7093 N.ar    1  UNL1       -0.1318
      5 N          63.5132   87.0956   15.6817 N.ar    1  UNL1       -0.0638
      6 C          64.3700   90.4537   13.9341 C.3     1  UNL1        0.0813
      7 C          65.3961   90.5822   15.0206 C.3     1  UNL1        0.0220
      8 C          63.3439   90.3253   12.8476 C.3     1  UNL1        0.0187
      9 C          61.9599   89.7680   13.0032 C.3     1  UNL1        0.0017
     10 C          61.2822   89.8299   11.6665 C.3     1  UNL1        0.0001
     11 C          62.2473   90.4254   10.6847 C.3     1  UNL1        0.0001
     12 C          63.5215   90.7316   11.4146 C.3     1  UNL1        0.0017
     13 N          64.6349   91.8698   13.5165 N.3     1  UNL1       -0.2914
     14 H          64.2354   92.4694   14.2385 H       1  UNL1        0.1238
     15 C          66.0437   92.3360   13.2973 C.3     1  UNL1        0.0958
     16 C          66.4334   92.9560   11.9881 C.ar    1  UNL1       -0.0063
     17 C          67.3921   92.2468   11.0783 C.ar    1  UNL1       -0.0014
     18 C          67.7818   92.8667    9.7692 C.ar    1  UNL1        0.0188
     19 C          67.2127   94.1959    9.3699 C.ar    1  UNL1        0.0813
     20 N          67.6024   94.8159    8.0608 N.ar    1  UNL1       -0.2438
     21 C          67.0334   96.1450    7.6615 C.ar    1  UNL1        0.0988
     22 C          66.0746   96.8543    8.5713 C.ar    1  UNL1        0.0207
     23 C          65.6850   96.2343    9.8804 C.ar    1  UNL1        0.0031
     24 C          66.2540   94.9052   10.2797 C.ar    1  UNL1        0.0174
     25 C          65.8643   94.2852   11.5889 C.ar    1  UNL1       -0.0014
     26 C          63.8832   85.1969   13.8370 C.3     1  UNL1        0.1676
     27 C          63.3410   84.8538   12.4811 C.2     1  UNL1        0.2165
     28 O          63.9804   83.7650   11.6712 O.2     1  UNL1       -0.2901
     29 C          62.1596   85.5995   11.9351 C.3     1  UNL1        0.2712
     30 O          62.3380   86.5534   10.7913 O.3     1  UNL1       -0.4627
     31 C          61.7368   86.2406    9.4532 C.ar    1  UNL1        0.1981
     32 C          62.5136   85.4398    8.4506 C.ar    1  UNL1        0.2034
     33 F          63.8916   84.9517    8.7862 F       1  UNL1       -0.1985
     34 C          61.9123   85.1270    7.1125 C.ar    1  UNL1        0.1728
     35 F          62.6892   84.3261    6.1099 F       1  UNL1       -0.2016
     36 C          60.5343   85.6151    6.7768 C.ar    1  UNL1        0.0641
     37 C          59.7574   86.4160    7.7794 C.ar    1  UNL1        0.1728
     38 F          58.3793   86.9042    7.4437 F       1  UNL1       -0.2016
     39 C          60.3587   86.7288    9.1175 C.ar    1  UNL1        0.2034
     40 F          59.5818   87.5297   10.1200 F       1  UNL1       -0.1985
     41 C          64.4274   84.1156   14.7226 C.3     1  UNL1        0.0321
     42 C          63.4961   83.1231   15.3532 C.3     1  UNL1        0.0024
     43 C          62.3444   81.2535   13.9645 C.3     1  UNL1        0.0000
     44 C          62.3092   82.6173   14.5882 C.3     1  UNL1        0.0001
@<TRIPOS>BOND
     1    43    44    1
     2    44    42    1
     3    42    41    1
     4    41    26    1
     5    26    27    1
     6    27    28    2
     7    27    29    1
     8    29    30    1
     9    30    31    1
    10    31    32   ar
    11    32    33    1
    12    32    34   ar
    13    34    35    1
    14    34    36   ar
    15    36    37   ar
    16    37    38    1
    17    37    39   ar
    18    39    40    1
    19    26     1    1
    20     1     2   ar
    21     2     3   ar
    22     3     6    1
    23     6     7    1
    24     6    13    1
    25    13    15    1
    26    15    16    1
    27    16    17   ar
    28    17    18   ar
    29    18    19   ar
    30    19    20   ar
    31    20    21   ar
    32    21    22   ar
    33    22    23   ar
    34    23    24   ar
    35    24    25   ar
    36     6     8    1
    37     8     9    1
    38     9    10    1
    39    10    11    1
    40    11    12    1
    41     3     4   ar
    42     4     5   ar
    43    39    31   ar
    44     5     1   ar
    45    25    16   ar
    46    12     8    1
    47    24    19   ar
    48    13    14    1
@<TRIPOS>MOLECULE
*****
 44 48 0 0 0
SMALL
GASTEIGER

@<TRIPOS>ATOM
      1 N          63.8560   90.7275   12.5889 N.ar    1  UNL1       -0.2252
      2 C          62.9653   89.5513   12.3188 C.ar    1  UNL1        0.1148
      3 C          62.5743   89.5885   10.8712 C.ar    1  UNL1        0.1134
      4 N          63.2234   90.7879   10.2465 N.ar    1  UNL1       -0.1318
      5 N          64.0156   91.4918   11.3080 N.ar    1  UNL1       -0.0638
      6 C          61.6896   88.6001   10.1711 C.3     1  UNL1        0.0813
      7 C          62.8707   88.0882    9.4012 C.3     1  UNL1        0.0220
      8 C          60.5084   89.1120   10.9410 C.3     1  UNL1        0.0187
      9 C          59.6646   88.3170   11.8929 C.3     1  UNL1        0.0017
     10 C          58.5984   89.2224   12.4345 C.3     1  UNL1        0.0001
     11 C          58.7832   90.5770   11.8173 C.3     1  UNL1        0.0001
     12 C          59.9636   90.5088   10.8942 C.3     1  UNL1        0.0017
     13 N          60.8048   87.6116    9.4710 N.3     1  UNL1       -0.2914
     14 H          60.3555   88.1107    8.7033 H       1  UNL1        0.1238
     15 C          61.3921   86.3601    8.8889 C.3     1  UNL1        0.0958
     16 C          62.1422   85.4041    9.7685 C.ar    1  UNL1       -0.0063
     17 C          63.1671   84.4844    9.1738 C.ar    1  UNL1       -0.0014
     18 C          63.9172   83.5284   10.0532 C.ar    1  UNL1        0.0188
     19 C          63.6424   83.4922   11.5274 C.ar    1  UNL1        0.0813
     20 N          64.3925   82.5362   12.4068 N.ar    1  UNL1       -0.2438
     21 C          64.1177   82.5000   13.8810 C.ar    1  UNL1        0.0988
     22 C          63.0929   83.4198   14.4757 C.ar    1  UNL1        0.0207
     23 C          62.3428   84.3757   13.5963 C.ar    1  UNL1        0.0031
     24 C          62.6176   84.4119   12.1221 C.ar    1  UNL1        0.0174
     25 C          61.8674   85.3679   11.2426 C.ar    1  UNL1       -0.0014
     26 C          64.4780   91.0780   13.9081 C.3     1  UNL1        0.1676
     27 C          65.7743   91.8318   13.9494 C.2     1  UNL1        0.2165
     28 O          66.9716   91.2285   14.6222 O.2     1  UNL1       -0.2901
     29 C          65.8732   93.1888   13.3181 C.3     1  UNL1        0.2712
     30 O          67.1688   93.6419   12.7130 O.3     1  UNL1       -0.4627
     31 C          67.2499   93.9300   11.2432 C.ar    1  UNL1        0.1981
     32 C          66.6255   95.1754   10.6874 C.ar    1  UNL1        0.2034
     33 F          65.9199   96.1327   11.6015 F       1  UNL1       -0.1985
     34 C          66.7066   95.4634    9.2176 C.ar    1  UNL1        0.1728
     35 F          66.0821   96.7089    8.6618 F       1  UNL1       -0.2016
     36 C          67.4122   94.5061    8.3035 C.ar    1  UNL1        0.0641
     37 C          68.0367   93.2607    8.8592 C.ar    1  UNL1        0.1728
     38 F          68.7423   92.3033    7.9451 F       1  UNL1       -0.2016
     39 C          67.9556   92.9726   10.3290 C.ar    1  UNL1        0.2034
     40 F          68.5801   91.7271   10.8848 F       1  UNL1       -0.1985
     41 C          63.8039   90.6748   15.1858 C.3     1  UNL1        0.0321
     42 C          63.8273   89.2410   15.6261 C.3     1  UNL1        0.0024
     43 C          62.9481   87.3617   17.1899 C.3     1  UNL1        0.0000
     44 C          63.0542   88.8164   16.8394 C.3     1  UNL1        0.0001
@<TRIPOS>BOND
     1    43    44    1
     2    44    42    1
     3    42    41    1
     4    41    26    1
     5    26    27    1
     6    27    28    2
     7    27    29    1
     8    29    30    1
     9    30    31    1
    10    31    32   ar
    11    32    33    1
    12    32    34   ar
    13    34    35    1
    14    34    36   ar
    15    36    37   ar
    16    37    38    1
    17    37    39   ar
    18    39    40    1
    19    26     1    1
    20     1     2   ar
    21     2     3   ar
    22     3     6    1
    23     6     7    1
    24     6    13    1
    25    13    15    1
    26    15    16    1
    27    16    17   ar
    28    17    18   ar
    29    18    19   ar
    30    19    20   ar
    31    20    21   ar
    32    21    22   ar
    33    22    23   ar
    34    23    24   ar
    35    24    25   ar
    36     6     8    1
    37     8     9    1
    38     9    10    1
    39    10    11    1
    40    11    12    1
    41     3     4   ar
    42     4     5   ar
    43    39    31   ar
    44     5     1   ar
    45    25    16   ar
    46    12     8    1
    47    24    19   ar
    48    13    14    1
@<TRIPOS>MOLECULE
*****
 44 48 0 0 0
SMALL
GASTEIGER

@<TRIPOS>ATOM
      1 N          62.6517   89.6648   12.6959 N.ar    1  UNL1       -0.2252
      2 C          62.6763   89.2331   11.2595 C.ar    1  UNL1        0.1148
      3 C          61.2578   89.0641   10.8020 C.ar    1  UNL1        0.1134
      4 N          60.3565   89.3913   11.9555 N.ar    1  UNL1       -0.1318
      5 N          61.2180   89.7625   13.1260 N.ar    1  UNL1       -0.0638
      6 C          60.8178   88.6421    9.4315 C.3     1  UNL1        0.0813
      7 C          60.2016   89.9922    9.2135 C.3     1  UNL1        0.0220
      8 C          61.4339   87.2920    9.6495 C.3     1  UNL1        0.0187
      9 C          61.2338   86.4149   10.8498 C.3     1  UNL1        0.0017
     10 C          62.0345   85.1627   10.6476 C.3     1  UNL1        0.0001
     11 C          62.7295   85.2658    9.3224 C.3     1  UNL1        0.0001
     12 C          62.3583   86.5818    8.7054 C.3     1  UNL1        0.0017
     13 N          60.3778   88.2200    8.0610 N.3     1  UNL1       -0.2914
     14 H          60.2550   87.2079    8.0899 H       1  UNL1        0.1238
     15 C          59.1248   88.7914    7.4664 C.3     1  UNL1        0.0958
     16 C          59.2124   89.8141    6.3725 C.ar    1  UNL1       -0.0063
     17 C          57.9879   90.5740    5.9565 C.ar    1  UNL1       -0.0014
     18 C          58.0755   91.5966    4.8626 C.ar    1  UNL1        0.0188
     19 C          59.3876   91.8594    4.1848 C.ar    1  UNL1        0.0813
     20 N          59.4752   92.8820    3.0910 N.ar    1  UNL1       -0.2438
     21 C          60.7872   93.1447    2.4132 C.ar    1  UNL1        0.0988
     22 C          62.0117   92.3848    2.8293 C.ar    1  UNL1        0.0207
     23 C          61.9242   91.3622    3.9231 C.ar    1  UNL1        0.0031
     24 C          60.6121   91.0995    4.6009 C.ar    1  UNL1        0.0174
     25 C          60.5245   90.0768    5.6948 C.ar    1  UNL1       -0.0014
     26 C          63.8503   89.9487   13.5518 C.3     1  UNL1        0.1676
     27 C          64.4803   91.3099   13.5323 C.2     1  UNL1        0.2165
     28 O          64.7128   92.0472   14.8178 O.2     1  UNL1       -0.2901
     29 C          64.8779   91.9337   12.2274 C.3     1  UNL1        0.2712
     30 O          65.8112   93.1079   12.2109 O.3     1  UNL1       -0.4627
     31 C          66.5298   93.4771   10.9470 C.ar    1  UNL1        0.1981
     32 C          67.6470   92.6140   10.4400 C.ar    1  UNL1        0.2034
     33 F          68.0455   91.3819   11.1968 F       1  UNL1       -0.1985
     34 C          68.3655   92.9833    9.1761 C.ar    1  UNL1        0.1728
     35 F          69.4827   92.1203    8.6690 F       1  UNL1       -0.2016
     36 C          67.9669   94.2155    8.4193 C.ar    1  UNL1        0.0641
     37 C          66.8497   95.0785    8.9264 C.ar    1  UNL1        0.1728
     38 F          66.4511   96.3107    8.1695 F       1  UNL1       -0.2016
     39 C          66.1312   94.7093   10.1902 C.ar    1  UNL1        0.2034
     40 F          65.0140   95.5723   10.6972 F       1  UNL1       -0.1985
     41 C          64.4190   88.8717   14.4272 C.3     1  UNL1        0.0321
     42 C          64.1594   87.4295   14.1066 C.3     1  UNL1        0.0024
     43 C          64.5284   84.9119   14.6314 C.3     1  UNL1        0.0000
     44 C          64.6764   86.3543   15.0157 C.3     1  UNL1        0.0001
@<TRIPOS>BOND
     1    43    44    1
     2    44    42    1
     3    42    41    1
     4    41    26    1
     5    26    27    1
     6    27    28    2
     7    27    29    1
     8    29    30    1
     9    30    31    1
    10    31    32   ar
    11    32    33    1
    12    32    34   ar
    13    34    35    1
    14    34    36   ar
    15    36    37   ar
    16    37    38    1
    17    37    39   ar
    18    39    40    1
    19    26     1    1
    20     1     2   ar
    21     2     3   ar
    22     3     6    1
    23     6     7    1
    24     6    13    1
    25    13    15    1
    26    15    16    1
    27    16    17   ar
    28    17    18   ar
    29    18    19   ar
    30    19    20   ar
    31    20    21   ar
    32    21    22   ar
    33    22    23   ar
    34    23    24   ar
    35    24    25   ar
    36     6     8    1
    37     8     9    1
    38     9    10    1
    39    10    11    1
    40    11    12    1
    41     3     4   ar
    42     4     5   ar
    43    39    31   ar
    44     5     1   ar
    45    25    16   ar
    46    12     8    1
    47    24    19   ar
    48    13    14    1
@<TRIPOS>MOLECULE
*****
 44 48 0 0 0
SMALL
GASTEIGER

@<TRIPOS>ATOM
      1 N          62.6945   89.6682   12.6169 N.ar    1  UNL1       -0.2252
      2 C          62.6940   89.2199   11.1855 C.ar    1  UNL1        0.1148
      3 C          61.2677   89.0469   10.7544 C.ar    1  UNL1        0.1134
      4 N          60.3867   89.3883   11.9194 N.ar    1  UNL1       -0.1318
      5 N          61.2685   89.7723   13.0705 N.ar    1  UNL1       -0.0638
      6 C          60.8039   88.6093    9.3967 C.3     1  UNL1        0.0813
      7 C          60.1712   89.9520    9.1802 C.3     1  UNL1        0.0220
      8 C          61.4366   87.2667    9.6133 C.3     1  UNL1        0.0187
      9 C          61.2426   86.3833   10.8101 C.3     1  UNL1        0.0017
     10 C          62.0605   85.1422   10.6076 C.3     1  UNL1        0.0001
     11 C          62.7599   85.2586    9.2858 C.3     1  UNL1        0.0001
     12 C          62.3743   86.5716    8.6712 C.3     1  UNL1        0.0017
     13 N          60.3400   88.1717    8.0391 N.3     1  UNL1       -0.2914
     14 H          60.1912   87.1639    8.0894 H       1  UNL1        0.1238
     15 C          59.0967   88.7639    7.4444 C.3     1  UNL1        0.0958
     16 C          59.2017   89.7963    6.3612 C.ar    1  UNL1       -0.0063
     17 C          57.9888   90.5766    5.9489 C.ar    1  UNL1       -0.0014
     18 C          58.0936   91.6090    4.8658 C.ar    1  UNL1        0.0188
     19 C          59.4114   91.8611    4.1950 C.ar    1  UNL1        0.0813
     20 N          59.5163   92.8935    3.1119 N.ar    1  UNL1       -0.2438
     21 C          60.8340   93.1455    2.4411 C.ar    1  UNL1        0.0988
     22 C          62.0469   92.3652    2.8534 C.ar    1  UNL1        0.0207
     23 C          61.9421   91.3328    3.9365 C.ar    1  UNL1        0.0031
     24 C          60.6243   91.0808    4.6073 C.ar    1  UNL1        0.0174
     25 C          60.5194   90.0483    5.6904 C.ar    1  UNL1       -0.0014
     26 C          63.9079   89.9610   13.4487 C.3     1  UNL1        0.1676
     27 C          64.5312   91.3249   13.4119 C.2     1  UNL1        0.2165
     28 O          64.9202   92.0065   14.6903 O.2     1  UNL1       -0.2901
     29 C          64.7654   92.0073   12.0968 C.3     1  UNL1        0.2712
     30 O          65.5203   93.3026   12.0478 O.3     1  UNL1       -0.4627
     31 C          66.3171   93.6606   10.8285 C.ar    1  UNL1        0.1981
     32 C          66.0110   94.9218   10.0762 C.ar    1  UNL1        0.2034
     33 F          64.9082   95.8247   10.5434 F       1  UNL1       -0.1985
     34 C          66.8079   95.2798    8.8569 C.ar    1  UNL1        0.1728
     35 F          66.5018   96.5409    8.1045 F       1  UNL1       -0.2016
     36 C          67.9107   94.3768    8.3897 C.ar    1  UNL1        0.0641
     37 C          68.2167   93.1156    9.1420 C.ar    1  UNL1        0.1728
     38 F          69.3196   92.2126    8.6748 F       1  UNL1       -0.2016
     39 C          67.4200   92.7576   10.3613 C.ar    1  UNL1        0.2034
     40 F          67.7260   91.4964   11.1136 F       1  UNL1       -0.1985
     41 C          64.4982   88.8900   14.3172 C.3     1  UNL1        0.0321
     42 C          64.0271   87.4721   14.1842 C.3     1  UNL1        0.0024
     43 C          64.8669   85.0387   14.5356 C.3     1  UNL1        0.0000
     44 C          64.5882   86.4082   15.0805 C.3     1  UNL1        0.0001
@<TRIPOS>BOND
     1    43    44    1
     2    44    42    1
     3    42    41    1
     4    41    26    1
     5    26    27    1
     6    27    28    2
     7    27    29    1
     8    29    30    1
     9    30    31    1
    10    31    32   ar
    11    32    33    1
    12    32    34   ar
    13    34    35    1
    14    34    36   ar
    15    36    37   ar
    16    37    38    1
    17    37    39   ar
    18    39    40    1
    19    26     1    1
    20     1     2   ar
    21     2     3   ar
    22     3     6    1
    23     6     7    1
    24     6    13    1
    25    13    15    1
    26    15    16    1
    27    16    17   ar
    28    17    18   ar
    29    18    19   ar
    30    19    20   ar
    31    20    21   ar
    32    21    22   ar
    33    22    23   ar
    34    23    24   ar
    35    24    25   ar
    36     6     8    1
    37     8     9    1
    38     9    10    1
    39    10    11    1
    40    11    12    1
    41     3     4   ar
    42     4     5   ar
    43    39    31   ar
    44     5     1   ar
    45    25    16   ar
    46    12     8    1
    47    24    19   ar
    48    13    14    1
@<TRIPOS>MOLECULE
*****
 44 48 0 0 0
SMALL
GASTEIGER

@<TRIPOS>ATOM
      1 N          64.9714   91.3445   14.9328 N.ar    1  UNL1       -0.2252
      2 C          65.2115   90.0292   14.2530 C.ar    1  UNL1        0.1148
      3 C          63.9658   89.2043   14.3862 C.ar    1  UNL1        0.1134
      4 N          62.9558   90.0098   15.1484 N.ar    1  UNL1       -0.1318
      5 N          63.5772   91.3325   15.4862 N.ar    1  UNL1       -0.0638
      6 C          63.7654   87.8174   13.8512 C.3     1  UNL1        0.0813
      7 C          64.2881   87.2462   15.1359 C.3     1  UNL1        0.0220
      8 C          63.2426   88.3885   12.5665 C.3     1  UNL1        0.0187
      9 C          63.2347   89.8393   12.1852 C.3     1  UNL1        0.0017
     10 C          62.6232   89.9567   10.8206 C.3     1  UNL1        0.0001
     11 C          62.2532   88.5785   10.3584 C.3     1  UNL1        0.0001
     12 C          62.6360   87.6093   11.4374 C.3     1  UNL1        0.0017
     13 N          63.5649   86.4305   13.3161 N.3     1  UNL1       -0.2914
     14 H          64.0768   86.3778   12.4355 H       1  UNL1        0.1238
     15 C          63.9841   85.2439   14.1323 C.3     1  UNL1        0.0958
     16 C          63.5876   83.8618   13.7050 C.ar    1  UNL1       -0.0063
     17 C          63.0239   82.8994   14.7080 C.ar    1  UNL1       -0.0014
     18 C          62.6274   81.5173   14.2808 C.ar    1  UNL1        0.0188
     19 C          62.7944   81.0976   12.8503 C.ar    1  UNL1        0.0813
     20 N          62.3979   79.7155   12.4230 N.ar    1  UNL1       -0.2438
     21 C          62.5650   79.2959   10.9927 C.ar    1  UNL1        0.0988
     22 C          63.1286   80.2583    9.9897 C.ar    1  UNL1        0.0207
     23 C          63.5251   81.6403   10.4169 C.ar    1  UNL1        0.0031
     24 C          63.3581   82.0600   11.8473 C.ar    1  UNL1        0.0174
     25 C          63.7546   83.4421   12.2746 C.ar    1  UNL1       -0.0014
     26 C          65.9530   92.4736   15.0404 C.3     1  UNL1        0.1676
     27 C          66.1357   93.4207   13.8916 C.2     1  UNL1        0.2165
     28 O          66.7816   94.7559   14.1157 O.2     1  UNL1       -0.2901
     29 C          65.6725   93.0325   12.5187 C.3     1  UNL1        0.2712
     30 O          65.3949   94.0917   11.4935 O.3     1  UNL1       -0.4627
     31 C          66.2953   94.2372   10.3027 C.ar    1  UNL1        0.1981
     32 C          66.2165   95.4680    9.4488 C.ar    1  UNL1        0.2034
     33 F          65.2374   96.5531    9.7858 F       1  UNL1       -0.1985
     34 C          67.1170   95.6134    8.2580 C.ar    1  UNL1        0.1728
     35 F          67.0382   96.8442    7.4040 F       1  UNL1       -0.2016
     36 C          68.0961   94.5282    7.9210 C.ar    1  UNL1        0.0641
     37 C          68.1749   93.2975    8.7749 C.ar    1  UNL1        0.1728
     38 F          69.1540   92.2122    8.4379 F       1  UNL1       -0.2016
     39 C          67.2745   93.1520    9.9657 C.ar    1  UNL1        0.2034
     40 F          67.3532   91.9212   10.8195 F       1  UNL1       -0.1985
     41 C          66.7519   92.6557   16.2968 C.3     1  UNL1        0.0321
     42 C          68.1634   92.1532   16.3675 C.3     1  UNL1        0.0024
     43 C          69.4393   94.3914   16.0314 C.3     1  UNL1        0.0000
     44 C          69.2704   92.9333   15.7224 C.3     1  UNL1        0.0001
@<TRIPOS>BOND
     1    43    44    1
     2    44    42    1
     3    42    41    1
     4    41    26    1
     5    26    27    1
     6    27    28    2
     7    27    29    1
     8    29    30    1
     9    30    31    1
    10    31    32   ar
    11    32    33    1
    12    32    34   ar
    13    34    35    1
    14    34    36   ar
    15    36    37   ar
    16    37    38    1
    17    37    39   ar
    18    39    40    1
    19    26     1    1
    20     1     2   ar
    21     2     3   ar
    22     3     6    1
    23     6     7    1
    24     6    13    1
    25    13    15    1
    26    15    16    1
    27    16    17   ar
    28    17    18   ar
    29    18    19   ar
    30    19    20   ar
    31    20    21   ar
    32    21    22   ar
    33    22    23   ar
    34    23    24   ar
    35    24    25   ar
    36     6     8    1
    37     8     9    1
    38     9    10    1
    39    10    11    1
    40    11    12    1
    41     3     4   ar
    42     4     5   ar
    43    39    31   ar
    44     5     1   ar
    45    25    16   ar
    46    12     8    1
    47    24    19   ar
    48    13    14    1
@<TRIPOS>MOLECULE
*****
 44 48 0 0 0
SMALL
GASTEIGER

@<TRIPOS>ATOM
      1 N          62.6453   87.0186   12.1311 N.ar    1  UNL1       -0.2252
      2 C          62.2244   87.8629   10.9649 C.ar    1  UNL1        0.1148
      3 C          61.3580   87.0232   10.0735 C.ar    1  UNL1        0.1134
      4 N          61.2435   85.6601   10.6889 N.ar    1  UNL1       -0.1318
      5 N          62.0390   85.6572   11.9605 N.ar    1  UNL1       -0.0638
      6 C          60.7185   87.4686    8.7919 C.3     1  UNL1        0.0813
      7 C          60.0977   88.6324    9.5061 C.3     1  UNL1        0.0220
      8 C          61.3393   86.3048    8.0777 C.3     1  UNL1        0.0187
      9 C          60.6795   85.4608    7.0276 C.3     1  UNL1        0.0017
     10 C          61.6613   84.4150    6.5891 C.3     1  UNL1        0.0001
     11 C          62.9278   84.6124    7.3682 C.3     1  UNL1        0.0001
     12 C          62.7288   85.7804    8.2882 C.3     1  UNL1        0.0017
     13 N          60.0790   87.9139    7.5103 N.3     1  UNL1       -0.2914
     14 H          59.4982   87.1404    7.1867 H       1  UNL1        0.1238
     15 C          59.2166   89.1411    7.4892 C.3     1  UNL1        0.0958
     16 C          59.2857   90.0863    6.3265 C.ar    1  UNL1       -0.0063
     17 C          58.0444   90.7805    5.8496 C.ar    1  UNL1       -0.0014
     18 C          58.1134   91.7258    4.6870 C.ar    1  UNL1        0.0188
     19 C          59.4236   91.9768    4.0011 C.ar    1  UNL1        0.0813
     20 N          59.4926   92.9220    2.8385 N.ar    1  UNL1       -0.2438
     21 C          60.8028   93.1731    2.1528 C.ar    1  UNL1        0.0988
     22 C          62.0440   92.4789    2.6296 C.ar    1  UNL1        0.0207
     23 C          61.9751   91.5336    3.7922 C.ar    1  UNL1        0.0031
     24 C          60.6649   91.2826    4.4780 C.ar    1  UNL1        0.0174
     25 C          60.5959   90.3374    5.6407 C.ar    1  UNL1       -0.0014
     26 C          63.5190   87.4585   13.2682 C.3     1  UNL1        0.1676
     27 C          63.9628   86.4652   14.3009 C.2     1  UNL1        0.2165
     28 O          63.2226   86.3532   15.6008 O.2     1  UNL1       -0.2901
     29 C          65.1468   85.5838   14.0336 C.3     1  UNL1        0.2712
     30 O          65.0879   84.1245   14.3757 O.3     1  UNL1       -0.4627
     31 C          64.0927   83.2337   13.6929 C.ar    1  UNL1        0.1981
     32 C          62.9264   82.6856   14.4605 C.ar    1  UNL1        0.2034
     33 F          62.7552   83.0282   15.9107 F       1  UNL1       -0.1985
     34 C          61.9312   81.7948   13.7777 C.ar    1  UNL1        0.1728
     35 F          60.7648   81.2465   14.5452 F       1  UNL1       -0.2016
     36 C          62.1024   81.4522   12.3275 C.ar    1  UNL1        0.0641
     37 C          63.2688   82.0003   11.5599 C.ar    1  UNL1        0.1728
     38 F          63.4400   81.6577   10.1096 F       1  UNL1       -0.2016
     39 C          64.2639   82.8911   12.2426 C.ar    1  UNL1        0.2034
     40 F          65.4302   83.4393   11.4751 F       1  UNL1       -0.1985
     41 C          63.9489   88.8917   13.3728 C.3     1  UNL1        0.0321
     42 C          64.6042   89.3886   14.6273 C.3     1  UNL1        0.0024
     43 C          63.0412   89.4959   16.6999 C.3     1  UNL1        0.0000
     44 C          63.8146   90.1909   15.6187 C.3     1  UNL1        0.0001
@<TRIPOS>BOND
     1    43    44    1
     2    44    42    1
     3    42    41    1
     4    41    26    1
     5    26    27    1
     6    27    28    2
     7    27    29    1
     8    29    30    1
     9    30    31    1
    10    31    32   ar
    11    32    33    1
    12    32    34   ar
    13    34    35    1
    14    34    36   ar
    15    36    37   ar
    16    37    38    1
    17    37    39   ar
    18    39    40    1
    19    26     1    1
    20     1     2   ar
    21     2     3   ar
    22     3     6    1
    23     6     7    1
    24     6    13    1
    25    13    15    1
    26    15    16    1
    27    16    17   ar
    28    17    18   ar
    29    18    19   ar
    30    19    20   ar
    31    20    21   ar
    32    21    22   ar
    33    22    23   ar
    34    23    24   ar
    35    24    25   ar
    36     6     8    1
    37     8     9    1
    38     9    10    1
    39    10    11    1
    40    11    12    1
    41     3     4   ar
    42     4     5   ar
    43    39    31   ar
    44     5     1   ar
    45    25    16   ar
    46    12     8    1
    47    24    19   ar
    48    13    14    1
@<TRIPOS>MOLECULE
*****
 44 48 0 0 0
SMALL
GASTEIGER

@<TRIPOS>ATOM
      1 N          62.6165   87.0799   12.0976 N.ar    1  UNL1       -0.2252
      2 C          62.1673   87.9051   10.9284 C.ar    1  UNL1        0.1148
      3 C          61.3068   87.0413   10.0546 C.ar    1  UNL1        0.1134
      4 N          61.2241   85.6822   10.6839 N.ar    1  UNL1       -0.1318
      5 N          62.0336   85.7060   11.9465 N.ar    1  UNL1       -0.0638
      6 C          60.6451   87.4626    8.7761 C.3     1  UNL1        0.0813
      7 C          60.0023   88.6155    9.4887 C.3     1  UNL1        0.0220
      8 C          61.2878   86.3098    8.0636 C.3     1  UNL1        0.0187
      9 C          62.6851   85.8085    8.2789 C.3     1  UNL1        0.0017
     10 C          62.9071   84.6447    7.3590 C.3     1  UNL1        0.0001
     11 C          61.6470   84.4267    6.5751 C.3     1  UNL1        0.0001
     12 C          60.6462   85.4558    7.0105 C.3     1  UNL1        0.0017
     13 N          59.9834   87.8840    7.4976 N.3     1  UNL1       -0.2914
     14 H          59.3897   87.1083    7.2039 H       1  UNL1        0.1238
     15 C          59.1312   89.1179    7.4654 C.3     1  UNL1        0.0958
     16 C          59.2283   90.0665    6.3074 C.ar    1  UNL1       -0.0063
     17 C          58.0030   90.7792    5.8169 C.ar    1  UNL1       -0.0014
     18 C          58.1001   91.7277    4.6589 C.ar    1  UNL1        0.0188
     19 C          59.4226   91.9635    3.9914 C.ar    1  UNL1        0.0813
     20 N          59.5197   92.9120    2.8335 N.ar    1  UNL1       -0.2438
     21 C          60.8421   93.1477    2.1660 C.ar    1  UNL1        0.0988
     22 C          62.0674   92.4350    2.6565 C.ar    1  UNL1        0.0207
     23 C          61.9703   91.4865    3.8144 C.ar    1  UNL1        0.0031
     24 C          60.6479   91.2508    4.4819 C.ar    1  UNL1        0.0174
     25 C          60.5508   90.3022    5.6399 C.ar    1  UNL1       -0.0014
     26 C          63.4944   87.5465   13.2208 C.3     1  UNL1        0.1676
     27 C          63.9604   86.5731   14.2626 C.2     1  UNL1        0.2165
     28 O          63.3749   86.6145   15.6430 O.2     1  UNL1       -0.2901
     29 C          65.0119   85.5583   13.9240 C.3     1  UNL1        0.2712
     30 O          64.8808   84.1486   14.4195 O.3     1  UNL1       -0.4627
     31 C          63.9510   83.1947   13.7301 C.ar    1  UNL1        0.1981
     32 C          64.1900   82.8174   12.2981 C.ar    1  UNL1        0.2034
     33 F          65.3588   83.3940   11.5557 F       1  UNL1       -0.1985
     34 C          63.2601   81.8635   11.6087 C.ar    1  UNL1        0.1728
     35 F          63.4990   81.4861   10.1766 F       1  UNL1       -0.2016
     36 C          62.0913   81.2868   12.3511 C.ar    1  UNL1        0.0641
     37 C          61.8522   81.6641   13.7831 C.ar    1  UNL1        0.1728
     38 F          60.6834   81.0875   14.5256 F       1  UNL1       -0.2016
     39 C          62.7821   82.6180   14.4725 C.ar    1  UNL1        0.2034
     40 F          62.5431   82.9953   15.9045 F       1  UNL1       -0.1985
     41 C          63.9064   88.9865   13.3021 C.3     1  UNL1        0.0321
     42 C          64.6403   89.4895   14.5097 C.3     1  UNL1        0.0024
     43 C          63.1896   89.8059   16.6418 C.3     1  UNL1        0.0000
     44 C          63.9467   90.3918   15.4869 C.3     1  UNL1        0.0001
@<TRIPOS>BOND
     1    43    44    1
     2    44    42    1
     3    42    41    1
     4    41    26    1
     5    26    27    1
     6    27    28    2
     7    27    29    1
     8    29    30    1
     9    30    31    1
    10    31    32   ar
    11    32    33    1
    12    32    34   ar
    13    34    35    1
    14    34    36   ar
    15    36    37   ar
    16    37    38    1
    17    37    39   ar
    18    39    40    1
    19    26     1    1
    20     1     2   ar
    21     2     3   ar
    22     3     6    1
    23     6     7    1
    24     6    13    1
    25    13    15    1
    26    15    16    1
    27    16    17   ar
    28    17    18   ar
    29    18    19   ar
    30    19    20   ar
    31    20    21   ar
    32    21    22   ar
    33    22    23   ar
    34    23    24   ar
    35    24    25   ar
    36     6     8    1
    37     8     9    1
    38     9    10    1
    39    10    11    1
    40    11    12    1
    41     3     4   ar
    42     4     5   ar
    43    39    31   ar
    44     5     1   ar
    45    25    16   ar
    46    12     8    1
    47    24    19   ar
    48    13    14    1
