@<TRIPOS>MOLECULE
*****
 37 41 0 0 0
SMALL
GASTEIGER

@<TRIPOS>ATOM
      1 C          64.2679   90.8023   13.4238 C.ar    1  UNL1        0.0899
      2 C          63.8940   91.8642   12.4326 C.ar    1  UNL1        0.1063
      3 N          63.1430   91.4966   11.1873 N.ar    1  UNL1       -0.2291
      4 C          62.7660   90.0672   10.9331 C.ar    1  UNL1        0.1301
      5 C          63.1400   89.0053   11.9243 C.ar    1  UNL1        0.0503
      6 C          63.8909   89.3728   13.1696 C.ar    1  UNL1        0.0895
      7 N          64.1213   88.1184   13.9592 N.2     1  UNL1       -0.2490
      8 C          63.5127   86.9756   13.2018 C.2     1  UNL1        0.0634
      9 C          63.4324   85.5067   13.4948 C.3     1  UNL1        0.0721
     10 C          62.7457   84.5860   12.5302 C.2     1  UNL1       -0.0132
     11 C          62.1392   85.1341   11.2725 C.2     1  UNL1       -0.0037
     12 C          62.2194   86.6030   10.9795 C.2     1  UNL1        0.0010
     13 C          62.9062   87.5238   11.9441 C.2     1  UNL1        0.0180
     14 C          62.6654   83.1170   12.8232 C.ar    1  UNL1        0.0349
     15 C          62.3586   82.6453   14.2136 C.ar    1  UNL1        0.1030
     16 N          62.2783   81.1764   14.5066 N.ar    1  UNL1       -0.2125
     17 C          62.5048   80.1792   13.4092 C.ar    1  UNL1        0.2137
     18 N          62.4245   78.7103   13.7022 N.pl3   1  UNL1       -0.3274
     19 N          62.8116   80.6509   12.0188 N.ar    1  UNL1       -0.2125
     20 C          62.8919   82.1199   11.7258 C.ar    1  UNL1        0.1030
     21 H          62.2231   78.4007   14.6148 H       1  UNL1        0.1452
     22 H          62.5732   78.0558   12.9820 H       1  UNL1        0.1452
     23 N          66.5188   91.1825   14.6643 N.am    1  UNL1       -0.3252
     24 C          65.0189   91.1698   14.6692 C.2     1  UNL1        0.2457
     25 O          64.2699   91.5247   15.9195 O.2     1  UNL1       -0.2703
     26 H          67.0116   91.4237   15.4817 H       1  UNL1        0.1453
     27 H          67.0104   90.9496   13.8438 H       1  UNL1        0.1453
     28 N          62.0150   89.6997    9.6876 N.pl3   1  UNL1       -0.3127
     29 H          62.4734   89.7064    8.8164 H       1  UNL1        0.1484
     30 C          60.5656   89.3220    9.7698 C.3     1  UNL1        0.1663
     31 C          59.7732   89.6518   10.9998 C.3     1  UNL1        0.4135
     32 F          58.9806   89.9816   12.2299 F       1  UNL1       -0.1682
     33 F          59.6283   88.1890   11.2987 F       1  UNL1       -0.1682
     34 F          59.9180   91.1146   10.7009 F       1  UNL1       -0.1682
     35 C          59.9088   88.6145    8.6217 C.3     1  UNL1        0.0264
     36 C          59.3213   88.6449    7.2419 C.3     1  UNL1        0.0020
     37 C          59.3588   87.3588    8.0129 C.3     1  UNL1        0.0020
@<TRIPOS>BOND
     1    23    24   am
     2    24    25    2
     3    24     1    1
     4     1     2   ar
     5     2     3   ar
     6     3     4   ar
     7     4    28    1
     8    30    28    1
     9    30    35    1
    10    35    36    1
    11    36    37    1
    12    30    31    1
    13    31    32    1
    14    31    33    1
    15    31    34    1
    16     4     5   ar
    17     5     6   ar
    18     6     7    1
    19     7     8    2
    20     8     9    1
    21     9    10    1
    22    10    14    1
    23    14    15   ar
    24    15    16   ar
    25    16    17   ar
    26    17    18    1
    27    17    19   ar
    28    19    20   ar
    29    10    11    2
    30    11    12    1
    31    12    13    2
    32     6     1   ar
    33    13     8    1
    34    37    35    1
    35    13     5    1
    36    20    14   ar
    37    23    26    1
    38    23    27    1
    39    28    29    1
    40    18    21    1
    41    18    22    1
@<TRIPOS>MOLECULE
*****
 37 41 0 0 0
SMALL
GASTEIGER

@<TRIPOS>ATOM
      1 C          64.2624   90.8653   13.3390 C.ar    1  UNL1        0.0899
      2 C          63.8959   91.9183   12.3356 C.ar    1  UNL1        0.1063
      3 N          63.1493   91.5405   11.0907 N.ar    1  UNL1       -0.2291
      4 C          62.7693   90.1096   10.8491 C.ar    1  UNL1        0.1301
      5 C          63.1359   89.0566   11.8525 C.ar    1  UNL1        0.0503
      6 C          63.8824   89.4345   13.0974 C.ar    1  UNL1        0.0895
      7 N          64.1057   88.1873   13.9004 N.2     1  UNL1       -0.2490
      8 C          63.4972   87.0388   13.1518 C.2     1  UNL1        0.0634
      9 C          63.4114   85.5731   13.4591 C.3     1  UNL1        0.0721
     10 C          62.7263   84.6447   12.5007 C.2     1  UNL1       -0.0132
     11 C          62.1268   85.1820   11.2349 C.2     1  UNL1       -0.0037
     12 C          62.2126   86.6477   10.9276 C.2     1  UNL1        0.0010
     13 C          62.8978   87.5760   11.8861 C.2     1  UNL1        0.0180
     14 C          62.6405   83.1790   12.8080 C.ar    1  UNL1        0.0349
     15 C          62.8699   82.1703   11.7217 C.ar    1  UNL1        0.1030
     16 N          62.7842   80.7047   12.0289 N.ar    1  UNL1       -0.2125
     17 C          62.4689   80.2476   13.4225 C.ar    1  UNL1        0.2137
     18 N          62.3831   78.7820   13.7297 N.pl3   1  UNL1       -0.3274
     19 N          62.2394   81.2563   14.5087 N.ar    1  UNL1       -0.2125
     20 C          62.3252   82.7220   14.2014 C.ar    1  UNL1        0.1030
     21 H          62.5337   78.1199   13.0167 H       1  UNL1        0.1452
     22 H          62.1762   78.4820   14.6443 H       1  UNL1        0.1452
     23 N          66.5088   91.2572   14.5839 N.am    1  UNL1       -0.3252
     24 C          65.0090   91.2431   14.5839 C.2     1  UNL1        0.2457
     25 O          64.2556   91.6069   15.8290 O.2     1  UNL1       -0.2703
     26 H          66.9988   91.5052   15.4010 H       1  UNL1        0.1453
     27 H          67.0033   91.0184   13.7667 H       1  UNL1        0.1453
     28 N          62.0227   89.7318    9.6041 N.pl3   1  UNL1       -0.3127
     29 H          62.4936   89.6933    8.7403 H       1  UNL1        0.1484
     30 C          60.5588   89.4128    9.6752 C.3     1  UNL1        0.1663
     31 C          59.8921   88.6925    8.5409 C.3     1  UNL1        0.4135
     32 F          59.2254   87.9722    7.4066 F       1  UNL1       -0.1682
     33 F          59.5304   87.5692    9.4669 F       1  UNL1       -0.1682
     34 F          60.2539   89.8158    7.6150 F       1  UNL1       -0.1682
     35 C          59.7615   89.8142   10.8807 C.3     1  UNL1        0.0264
     36 C          59.0024   90.8556   11.6483 C.3     1  UNL1        0.0020
     37 C          59.1397   89.4680   12.2011 C.3     1  UNL1        0.0020
@<TRIPOS>BOND
     1    23    24   am
     2    24    25    2
     3    24     1    1
     4     1     2   ar
     5     2     3   ar
     6     3     4   ar
     7     4    28    1
     8    30    28    1
     9    30    35    1
    10    35    36    1
    11    36    37    1
    12    30    31    1
    13    31    32    1
    14    31    33    1
    15    31    34    1
    16     4     5   ar
    17     5     6   ar
    18     6     7    1
    19     7     8    2
    20     8     9    1
    21     9    10    1
    22    10    14    1
    23    14    15   ar
    24    15    16   ar
    25    16    17   ar
    26    17    18    1
    27    17    19   ar
    28    19    20   ar
    29    10    11    2
    30    11    12    1
    31    12    13    2
    32     6     1   ar
    33    13     8    1
    34    37    35    1
    35    13     5    1
    36    20    14   ar
    37    23    26    1
    38    23    27    1
    39    28    29    1
    40    18    21    1
    41    18    22    1
@<TRIPOS>MOLECULE
*****
 37 41 0 0 0
SMALL
GASTEIGER

@<TRIPOS>ATOM
      1 C          63.6872   82.6300   13.7724 C.ar    1  UNL1        0.0899
      2 C          64.5648   82.9006   14.9584 C.ar    1  UNL1        0.1063
      3 N          64.9270   84.3113   15.3170 N.ar    1  UNL1       -0.2291
      4 C          64.4116   85.4515   14.4896 C.ar    1  UNL1        0.1301
      5 C          63.5340   85.1809   13.3036 C.ar    1  UNL1        0.0503
      6 C          63.1718   83.7701   12.9450 C.ar    1  UNL1        0.0895
      7 N          62.2949   83.8117   11.7287 N.2     1  UNL1       -0.2490
      8 C          62.1152   85.2480   11.3356 C.2     1  UNL1        0.0634
      9 C          61.3532   85.8947   10.2171 C.3     1  UNL1        0.0721
     10 C          61.3570   87.3876   10.0720 C.2     1  UNL1       -0.0132
     11 C          62.1228   88.2339   11.0453 C.2     1  UNL1       -0.0037
     12 C          62.8848   87.5872   12.1638 C.2     1  UNL1        0.0010
     13 C          62.8810   86.0943   12.3090 C.2     1  UNL1        0.0180
     14 C          60.5950   88.0344    8.9534 C.ar    1  UNL1        0.0349
     15 C          59.8652   87.1863    7.9544 C.ar    1  UNL1        0.1030
     16 N          59.1032   87.8330    6.8359 N.ar    1  UNL1       -0.2125
     17 C          59.0711   89.3279    6.7163 C.ar    1  UNL1        0.2137
     18 N          58.3091   89.9746    5.5978 N.pl3   1  UNL1       -0.3274
     19 N          59.8009   90.1760    7.7153 N.ar    1  UNL1       -0.2125
     20 C          60.5629   89.5293    8.8338 C.ar    1  UNL1        0.1030
     21 H          57.8301   89.4179    4.9421 H       1  UNL1        0.1452
     22 H          58.2880   90.9557    5.5193 H       1  UNL1        0.1452
     23 N          62.9089   80.8850   12.0120 N.am    1  UNL1       -0.3252
     24 C          63.3249   81.2192   13.4138 C.2     1  UNL1        0.2457
     25 O          63.3788   80.1427   14.4570 O.2     1  UNL1       -0.2703
     26 H          62.6712   79.9591   11.7767 H       1  UNL1        0.1453
     27 H          62.8736   81.5915   11.3273 H       1  UNL1        0.1453
     28 N          64.7738   86.8623   14.8483 N.pl3   1  UNL1       -0.3127
     29 H          65.5962   87.2661   14.4879 H       1  UNL1        0.1484
     30 C          63.8830   87.6576   15.7560 C.3     1  UNL1        0.1663
     31 C          63.7820   89.1452   15.5929 C.3     1  UNL1        0.4135
     32 F          63.6809   90.6329   15.4297 F       1  UNL1       -0.1682
     33 F          62.8249   89.2067   16.7462 F       1  UNL1       -0.1682
     34 F          64.7391   89.0837   14.4395 F       1  UNL1       -0.1682
     35 C          63.0933   86.9652   16.8269 C.3     1  UNL1        0.0264
     36 C          62.0493   85.9668   17.2310 C.3     1  UNL1        0.0020
     37 C          62.7695   86.7642   18.2777 C.3     1  UNL1        0.0020
@<TRIPOS>BOND
     1    23    24   am
     2    24    25    2
     3    24     1    1
     4     1     2   ar
     5     2     3   ar
     6     3     4   ar
     7     4    28    1
     8    30    28    1
     9    30    35    1
    10    35    36    1
    11    36    37    1
    12    30    31    1
    13    31    32    1
    14    31    33    1
    15    31    34    1
    16     4     5   ar
    17     5     6   ar
    18     6     7    1
    19     7     8    2
    20     8     9    1
    21     9    10    1
    22    10    14    1
    23    14    15   ar
    24    15    16   ar
    25    16    17   ar
    26    17    18    1
    27    17    19   ar
    28    19    20   ar
    29    10    11    2
    30    11    12    1
    31    12    13    2
    32     6     1   ar
    33    13     8    1
    34    37    35    1
    35    13     5    1
    36    20    14   ar
    37    23    26    1
    38    23    27    1
    39    28    29    1
    40    18    21    1
    41    18    22    1
@<TRIPOS>MOLECULE
*****
 37 41 0 0 0
SMALL
GASTEIGER

@<TRIPOS>ATOM
      1 C          63.6184   82.4311   13.7777 C.ar    1  UNL1        0.0899
      2 C          64.4699   82.6701   14.9892 C.ar    1  UNL1        0.1063
      3 N          64.8280   84.0705   15.3898 N.ar    1  UNL1       -0.2291
      4 C          64.3347   85.2320   14.5787 C.ar    1  UNL1        0.1301
      5 C          63.4832   84.9930   13.3672 C.ar    1  UNL1        0.0503
      6 C          63.1251   83.5925   12.9667 C.ar    1  UNL1        0.0895
      7 N          62.2760   83.6662   11.7323 N.2     1  UNL1       -0.2490
      8 C          62.1094   85.1122   11.3700 C.2     1  UNL1        0.0634
      9 C          61.3747   85.7882   10.2505 C.3     1  UNL1        0.0721
     10 C          61.3861   87.2842   10.1415 C.2     1  UNL1       -0.0132
     11 C          62.1322   88.1042   11.1520 C.2     1  UNL1       -0.0037
     12 C          62.8669   87.4282   12.2714 C.2     1  UNL1        0.0010
     13 C          62.8555   85.9322   12.3804 C.2     1  UNL1        0.0180
     14 C          60.6513   87.9602    9.0220 C.ar    1  UNL1        0.0349
     15 C          59.9547   87.1386    7.9781 C.ar    1  UNL1        0.1030
     16 N          59.2200   87.8146    6.8587 N.ar    1  UNL1       -0.2125
     17 C          59.1819   89.3123    6.7831 C.ar    1  UNL1        0.2137
     18 N          58.4471   89.9883    5.6637 N.pl3   1  UNL1       -0.3274
     19 N          59.8784   90.1339    7.8270 N.ar    1  UNL1       -0.2125
     20 C          60.6132   89.4578    8.9465 C.ar    1  UNL1        0.1030
     21 H          57.9900   89.4490    4.9785 H       1  UNL1        0.1452
     22 H          58.4221   90.9712    5.6141 H       1  UNL1        0.1452
     23 N          62.9067   80.7254   11.9518 N.am    1  UNL1       -0.3252
     24 C          63.2603   81.0306   13.3772 C.2     1  UNL1        0.2457
     25 O          63.2558   79.9353   14.4021 O.2     1  UNL1       -0.2703
     26 H          62.6716   79.8062   11.6890 H       1  UNL1        0.1453
     27 H          62.9096   81.4442   11.2792 H       1  UNL1        0.1453
     28 N          64.6928   86.6325   14.9793 N.pl3   1  UNL1       -0.3127
     29 H          65.5240   87.0423   14.6469 H       1  UNL1        0.1484
     30 C          63.7846   87.4086   15.8865 C.3     1  UNL1        0.1663
     31 C          63.0532   86.7086   16.9932 C.3     1  UNL1        0.4135
     32 F          62.3217   86.0086   18.1000 F       1  UNL1       -0.1682
     33 F          64.2515   85.8396   17.2356 F       1  UNL1       -0.1682
     34 F          61.8548   87.5776   16.7508 F       1  UNL1       -0.1682
     35 C          63.6079   88.8847   15.6868 C.3     1  UNL1        0.0264
     36 C          63.4544   90.0624   14.7706 C.3     1  UNL1        0.0020
     37 C          63.4554   90.2636   16.2570 C.3     1  UNL1        0.0020
@<TRIPOS>BOND
     1    23    24   am
     2    24    25    2
     3    24     1    1
     4     1     2   ar
     5     2     3   ar
     6     3     4   ar
     7     4    28    1
     8    30    28    1
     9    30    35    1
    10    35    36    1
    11    36    37    1
    12    30    31    1
    13    31    32    1
    14    31    33    1
    15    31    34    1
    16     4     5   ar
    17     5     6   ar
    18     6     7    1
    19     7     8    2
    20     8     9    1
    21     9    10    1
    22    10    14    1
    23    14    15   ar
    24    15    16   ar
    25    16    17   ar
    26    17    18    1
    27    17    19   ar
    28    19    20   ar
    29    10    11    2
    30    11    12    1
    31    12    13    2
    32     6     1   ar
    33    13     8    1
    34    37    35    1
    35    13     5    1
    36    20    14   ar
    37    23    26    1
    38    23    27    1
    39    28    29    1
    40    18    21    1
    41    18    22    1
@<TRIPOS>MOLECULE
*****
 37 41 0 0 0
SMALL
GASTEIGER

@<TRIPOS>ATOM
      1 C          62.8580   84.3673   13.5556 C.ar    1  UNL1        0.0899
      2 C          61.8905   83.9967   12.4708 C.ar    1  UNL1        0.1063
      3 N          61.4586   85.0248   11.4677 N.ar    1  UNL1       -0.2291
      4 C          61.9942   86.4236   11.5492 C.ar    1  UNL1        0.1301
      5 C          62.9617   86.7942   12.6339 C.ar    1  UNL1        0.0503
      6 C          63.3936   85.7660   13.6371 C.ar    1  UNL1        0.0895
      7 N          64.3523   86.4199   14.5875 N.2     1  UNL1       -0.2490
      8 C          64.5130   87.8521   14.1717 C.2     1  UNL1        0.0634
      9 C          65.3309   88.9755   14.7365 C.3     1  UNL1        0.0721
     10 C          65.2893   90.3302   14.0939 C.2     1  UNL1       -0.0132
     11 C          64.4299   90.5615   12.8865 C.2     1  UNL1       -0.0037
     12 C          63.6120   89.4382   12.3217 C.2     1  UNL1        0.0010
     13 C          63.6536   88.0834   12.9643 C.2     1  UNL1        0.0180
     14 C          66.1073   91.4537   14.6586 C.ar    1  UNL1        0.0349
     15 C          67.3696   91.8818   13.9707 C.ar    1  UNL1        0.1030
     16 N          68.1875   93.0052   14.5355 N.ar    1  UNL1       -0.2125
     17 C          67.7431   93.7005   15.7882 C.ar    1  UNL1        0.2137
     18 N          68.5610   94.8239   16.3529 N.pl3   1  UNL1       -0.3274
     19 N          66.4807   93.2724   16.4761 N.ar    1  UNL1       -0.2125
     20 C          65.6628   92.1489   15.9113 C.ar    1  UNL1        0.1030
     21 H          69.3895   95.1050   15.9014 H       1  UNL1        0.1452
     22 H          68.2693   95.2803   17.1750 H       1  UNL1        0.1452
     23 N          64.5590   83.5343   15.3338 N.am    1  UNL1       -0.3252
     24 C          63.2898   83.3391   14.5587 C.2     1  UNL1        0.2457
     25 O          62.4524   82.1156   14.7868 O.2     1  UNL1       -0.2703
     26 H          64.8424   82.8595   15.9923 H       1  UNL1        0.1453
     27 H          65.1086   84.3373   15.1842 H       1  UNL1        0.1453
     28 N          61.5623   87.4517   10.5459 N.pl3   1  UNL1       -0.3127
     29 H          61.5092   88.4001   10.8047 H       1  UNL1        0.1484
     30 C          61.2114   87.0348    9.1484 C.3     1  UNL1        0.1663
     31 C          60.0277   87.6453    8.4585 C.3     1  UNL1        0.4135
     32 F          58.8439   88.2557    7.7685 F       1  UNL1       -0.1682
     33 F          60.6538   89.0025    8.5851 F       1  UNL1       -0.1682
     34 F          59.4016   86.2881    8.3319 F       1  UNL1       -0.1682
     35 C          62.0443   86.0073    8.4409 C.3     1  UNL1        0.0264
     36 C          63.2937   85.1815    8.3569 C.3     1  UNL1        0.0020
     37 C          62.2376   85.0536    7.2995 C.3     1  UNL1        0.0020
@<TRIPOS>BOND
     1    23    24   am
     2    24    25    2
     3    24     1    1
     4     1     2   ar
     5     2     3   ar
     6     3     4   ar
     7     4    28    1
     8    30    28    1
     9    30    35    1
    10    35    36    1
    11    36    37    1
    12    30    31    1
    13    31    32    1
    14    31    33    1
    15    31    34    1
    16     4     5   ar
    17     5     6   ar
    18     6     7    1
    19     7     8    2
    20     8     9    1
    21     9    10    1
    22    10    14    1
    23    14    15   ar
    24    15    16   ar
    25    16    17   ar
    26    17    18    1
    27    17    19   ar
    28    19    20   ar
    29    10    11    2
    30    11    12    1
    31    12    13    2
    32     6     1   ar
    33    13     8    1
    34    37    35    1
    35    13     5    1
    36    20    14   ar
    37    23    26    1
    38    23    27    1
    39    28    29    1
    40    18    21    1
    41    18    22    1
@<TRIPOS>MOLECULE
*****
 37 41 0 0 0
SMALL
GASTEIGER

@<TRIPOS>ATOM
      1 C          62.4939   84.7961   12.8474 C.ar    1  UNL1        0.0899
      2 C          61.6096   84.5268   11.6661 C.ar    1  UNL1        0.1063
      3 N          61.3382   85.6142   10.6691 N.ar    1  UNL1       -0.2291
      4 C          61.9510   86.9708   10.8534 C.ar    1  UNL1        0.1301
      5 C          62.8353   87.2401   12.0348 C.ar    1  UNL1        0.0503
      6 C          63.1067   86.1528   13.0317 C.ar    1  UNL1        0.0895
      7 N          64.0126   86.7096   14.0897 N.2     1  UNL1       -0.2490
      8 C          64.3011   88.1411   13.7465 C.2     1  UNL1        0.0634
      9 C          65.1323   89.1883   14.4264 C.3     1  UNL1        0.0721
     10 C          65.2359   90.5634   13.8363 C.2     1  UNL1       -0.0132
     11 C          64.5082   90.8913   12.5663 C.2     1  UNL1       -0.0037
     12 C          63.6770   89.8441   11.8864 C.2     1  UNL1        0.0010
     13 C          63.5734   88.4690   12.4765 C.2     1  UNL1        0.0180
     14 C          66.0671   91.6107   14.5162 C.ar    1  UNL1        0.0349
     15 C          67.3141   92.1225   13.8580 C.ar    1  UNL1        0.1030
     16 N          68.1453   93.1698   14.5378 N.ar    1  UNL1       -0.2125
     17 C          67.7297   93.7053   15.8760 C.ar    1  UNL1        0.2137
     18 N          68.5609   94.7526   16.5558 N.pl3   1  UNL1       -0.3274
     19 N          66.4827   93.1935   16.5342 N.ar    1  UNL1       -0.2125
     20 C          65.6515   92.1462   15.8543 C.ar    1  UNL1        0.1030
     21 H          69.3793   95.0885   16.1238 H       1  UNL1        0.1452
     22 H          68.2881   95.1040   17.4340 H       1  UNL1        0.1452
     23 N          62.7154   84.0085   15.3132 N.am    1  UNL1       -0.3252
     24 C          62.7653   83.7088   13.8444 C.2     1  UNL1        0.2457
     25 O          63.0866   82.3216   13.3725 O.2     1  UNL1       -0.2703
     26 H          62.8936   83.2949   15.9676 H       1  UNL1        0.1453
     27 H          62.5045   84.9189   15.6230 H       1  UNL1        0.1453
     28 N          61.6795   88.0582    9.8564 N.pl3   1  UNL1       -0.3127
     29 H          62.4022   88.3806    9.2706 H       1  UNL1        0.1484
     30 C          60.3070   88.6542    9.7518 C.3     1  UNL1        0.1663
     31 C          59.4954   88.4545    8.5064 C.3     1  UNL1        0.4135
     32 F          58.6837   88.2547    7.2608 F       1  UNL1       -0.1682
     33 F          59.9117   89.8102    8.0177 F       1  UNL1       -0.1682
     34 F          59.0791   87.0988    8.9950 F       1  UNL1       -0.1682
     35 C          59.7461   89.4501   10.8929 C.3     1  UNL1        0.0264
     36 C          59.1895   89.5109   12.2845 C.3     1  UNL1        0.0020
     37 C          59.3313   90.7675   11.4778 C.3     1  UNL1        0.0020
@<TRIPOS>BOND
     1    23    24   am
     2    24    25    2
     3    24     1    1
     4     1     2   ar
     5     2     3   ar
     6     3     4   ar
     7     4    28    1
     8    30    28    1
     9    30    35    1
    10    35    36    1
    11    36    37    1
    12    30    31    1
    13    31    32    1
    14    31    33    1
    15    31    34    1
    16     4     5   ar
    17     5     6   ar
    18     6     7    1
    19     7     8    2
    20     8     9    1
    21     9    10    1
    22    10    14    1
    23    14    15   ar
    24    15    16   ar
    25    16    17   ar
    26    17    18    1
    27    17    19   ar
    28    19    20   ar
    29    10    11    2
    30    11    12    1
    31    12    13    2
    32     6     1   ar
    33    13     8    1
    34    37    35    1
    35    13     5    1
    36    20    14   ar
    37    23    26    1
    38    23    27    1
    39    28    29    1
    40    18    21    1
    41    18    22    1
@<TRIPOS>MOLECULE
*****
 37 41 0 0 0
SMALL
GASTEIGER

@<TRIPOS>ATOM
      1 C          62.6247   84.8523   13.1460 C.ar    1  UNL1        0.0899
      2 C          61.7197   84.5671   11.9843 C.ar    1  UNL1        0.1063
      3 N          61.4333   85.6399   10.9757 N.ar    1  UNL1       -0.2291
      4 C          62.0518   86.9978   11.1289 C.ar    1  UNL1        0.1301
      5 C          62.9568   87.2830   12.2906 C.ar    1  UNL1        0.0503
      6 C          63.2433   86.2102   13.2992 C.ar    1  UNL1        0.0895
      7 N          64.1684   86.7810   14.3328 N.2     1  UNL1       -0.2490
      8 C          64.4537   88.2065   13.9631 C.2     1  UNL1        0.0634
      9 C          65.2985   89.2620   14.6127 C.3     1  UNL1        0.0721
     10 C          65.3946   90.6278   14.0001 C.2     1  UNL1       -0.0132
     11 C          64.6458   90.9380   12.7379 C.2     1  UNL1       -0.0037
     12 C          63.8010   89.8825   12.0883 C.2     1  UNL1        0.0010
     13 C          63.7049   88.5167   12.7009 C.2     1  UNL1        0.0180
     14 C          66.2395   91.6834   14.6496 C.ar    1  UNL1        0.0349
     15 C          65.8208   92.2765   15.9622 C.ar    1  UNL1        0.1030
     16 N          66.6657   93.3321   16.6118 N.ar    1  UNL1       -0.2125
     17 C          67.9292   93.7946   15.9488 C.ar    1  UNL1        0.2137
     18 N          68.7741   94.8502   16.5984 N.pl3   1  UNL1       -0.3274
     19 N          68.3479   93.2015   14.6362 N.ar    1  UNL1       -0.2125
     20 C          67.5030   92.1459   13.9866 C.ar    1  UNL1        0.1030
     21 H          68.4993   95.2395   17.4599 H       1  UNL1        0.1452
     22 H          69.6034   95.1538   16.1632 H       1  UNL1        0.1452
     23 N          64.0582   83.9341   15.1085 N.am    1  UNL1       -0.3252
     24 C          62.9111   83.7796   14.1545 C.2     1  UNL1        0.2457
     25 O          62.0504   82.5522   14.2090 O.2     1  UNL1       -0.2703
     26 H          64.2462   83.2300   15.7705 H       1  UNL1        0.1453
     27 H          64.6231   84.7396   15.0728 H       1  UNL1        0.1453
     28 N          61.7653   88.0706   10.1203 N.pl3   1  UNL1       -0.3127
     29 H          62.5040   88.4821    9.6161 H       1  UNL1        0.1484
     30 C          60.3533   88.5162    9.8800 C.3     1  UNL1        0.1663
     31 C          59.6768   89.4265   10.8615 C.3     1  UNL1        0.4135
     32 F          59.0002   90.3369   11.8430 F       1  UNL1       -0.1682
     33 F          59.2325   88.2364   11.6591 F       1  UNL1       -0.1682
     34 F          60.1210   90.6167   10.0638 F       1  UNL1       -0.1682
     35 C          59.6180   88.0514    8.6580 C.3     1  UNL1        0.0264
     36 C          58.9963   88.3467    7.3252 C.3     1  UNL1        0.0020
     37 C          58.9660   86.9511    7.8743 C.3     1  UNL1        0.0020
@<TRIPOS>BOND
     1    23    24   am
     2    24    25    2
     3    24     1    1
     4     1     2   ar
     5     2     3   ar
     6     3     4   ar
     7     4    28    1
     8    30    28    1
     9    30    35    1
    10    35    36    1
    11    36    37    1
    12    30    31    1
    13    31    32    1
    14    31    33    1
    15    31    34    1
    16     4     5   ar
    17     5     6   ar
    18     6     7    1
    19     7     8    2
    20     8     9    1
    21     9    10    1
    22    10    14    1
    23    14    15   ar
    24    15    16   ar
    25    16    17   ar
    26    17    18    1
    27    17    19   ar
    28    19    20   ar
    29    10    11    2
    30    11    12    1
    31    12    13    2
    32     6     1   ar
    33    13     8    1
    34    37    35    1
    35    13     5    1
    36    20    14   ar
    37    23    26    1
    38    23    27    1
    39    28    29    1
    40    18    21    1
    41    18    22    1
@<TRIPOS>MOLECULE
*****
 37 41 0 0 0
SMALL
GASTEIGER

@<TRIPOS>ATOM
      1 C          62.9531   82.2284   12.6748 C.ar    1  UNL1        0.0899
      2 C          62.7945   81.7479   11.2628 C.ar    1  UNL1        0.1063
      3 N          62.8289   82.7288   10.1285 N.ar    1  UNL1       -0.2291
      4 C          63.0218   84.1902   10.4062 C.ar    1  UNL1        0.1301
      5 C          63.1804   84.6707   11.8183 C.ar    1  UNL1        0.0503
      6 C          63.1460   83.6898   12.9526 C.ar    1  UNL1        0.0895
      7 N          63.3284   84.4530   14.2310 N.2     1  UNL1       -0.2490
      8 C          63.4755   85.9055   13.8868 C.2     1  UNL1        0.0634
      9 C          63.6810   87.1230   14.7385 C.3     1  UNL1        0.0721
     10 C          63.7949   88.4751   14.0991 C.2     1  UNL1       -0.0132
     11 C          63.7034   88.6096   12.6079 C.2     1  UNL1       -0.0037
     12 C          63.4980   87.3921   11.7562 C.2     1  UNL1        0.0010
     13 C          63.3840   86.0401   12.3956 C.2     1  UNL1        0.0180
     14 C          64.0004   89.6927   14.9508 C.ar    1  UNL1        0.0349
     15 C          63.2287   89.8542   16.2269 C.ar    1  UNL1        0.1030
     16 N          63.4341   91.0717   17.0786 N.ar    1  UNL1       -0.2125
     17 C          64.4112   92.1278   16.6542 C.ar    1  UNL1        0.2137
     18 N          64.6166   93.3453   17.5059 N.pl3   1  UNL1       -0.3274
     19 N          65.1829   91.9662   15.3781 N.ar    1  UNL1       -0.2125
     20 C          64.9774   90.7486   14.5264 C.ar    1  UNL1        0.1030
     21 H          64.1101   93.4513   18.3434 H       1  UNL1        0.1452
     22 H          65.2579   94.0384   17.2274 H       1  UNL1        0.1452
     23 N          61.6560   81.0538   14.5951 N.am    1  UNL1       -0.3252
     24 C          62.9187   81.2475   13.8091 C.2     1  UNL1        0.2457
     25 O          64.1472   80.4603   14.1574 O.2     1  UNL1       -0.2703
     26 H          61.6334   80.4100   15.3396 H       1  UNL1        0.1453
     27 H          60.8497   81.5705   14.3665 H       1  UNL1        0.1453
     28 N          63.0562   85.1711    9.2718 N.pl3   1  UNL1       -0.3127
     29 H          63.9189   85.5097    8.9398 H       1  UNL1        0.1484
     30 C          61.7760   85.6360    8.6434 C.3     1  UNL1        0.1663
     31 C          61.3101   85.0292    7.3532 C.3     1  UNL1        0.4135
     32 F          60.8443   84.4224    6.0629 F       1  UNL1       -0.1682
     33 F          59.9102   85.4817    7.6459 F       1  UNL1       -0.1682
     34 F          62.7100   84.5768    7.0605 F       1  UNL1       -0.1682
     35 C          60.9616   86.7079    9.3052 C.3     1  UNL1        0.0264
     36 C          60.2773   87.2537   10.5233 C.3     1  UNL1        0.0020
     37 C          60.2355   88.0184    9.2336 C.3     1  UNL1        0.0020
@<TRIPOS>BOND
     1    23    24   am
     2    24    25    2
     3    24     1    1
     4     1     2   ar
     5     2     3   ar
     6     3     4   ar
     7     4    28    1
     8    30    28    1
     9    30    35    1
    10    35    36    1
    11    36    37    1
    12    30    31    1
    13    31    32    1
    14    31    33    1
    15    31    34    1
    16     4     5   ar
    17     5     6   ar
    18     6     7    1
    19     7     8    2
    20     8     9    1
    21     9    10    1
    22    10    14    1
    23    14    15   ar
    24    15    16   ar
    25    16    17   ar
    26    17    18    1
    27    17    19   ar
    28    19    20   ar
    29    10    11    2
    30    11    12    1
    31    12    13    2
    32     6     1   ar
    33    13     8    1
    34    37    35    1
    35    13     5    1
    36    20    14   ar
    37    23    26    1
    38    23    27    1
    39    28    29    1
    40    18    21    1
    41    18    22    1
