@<TRIPOS>MOLECULE
*****
 33 37 0 0 0
SMALL
GASTEIGER

@<TRIPOS>ATOM
      1 C          62.6434   90.7652   11.2476 C.ar    1  UNL1        0.1569
      2 N          63.1349   91.5769   10.0859 N.ar    1  UNL1       -0.1326
      3 N          64.4053   92.3654   10.2060 N.ar    1  UNL1       -0.1436
      4 C          65.1840   92.3423   11.4878 C.ar    1  UNL1        0.1414
      5 C          64.6925   91.5306   12.6495 C.ar    1  UNL1        0.1081
      6 C          63.4222   90.7420   12.5294 C.ar    1  UNL1        0.0736
      7 C          63.1873   90.0399   13.8340 C.ar    1  UNL1        0.1249
      8 N          64.3125   90.3945   14.7603 N.ar    1  UNL1       -0.1632
      9 N          65.2427   91.3158   14.0283 N.ar    1  UNL1       -0.2235
     10 C          66.5021   91.9168   14.5784 C.ar    1  UNL1        0.1375
     11 C          66.4959   92.5625   15.9323 C.ar    1  UNL1        0.1599
     12 F          65.2303   92.6071   16.7362 F       1  UNL1       -0.2025
     13 C          67.7553   93.1635   16.4825 C.ar    1  UNL1        0.0313
     14 C          69.0210   93.1189   15.6787 C.ar    1  UNL1        0.0047
     15 C          69.0272   92.4733   14.3248 C.ar    1  UNL1        0.0313
     16 C          67.7678   91.8723   13.7747 C.ar    1  UNL1        0.1599
     17 F          67.7741   91.2267   12.4207 F       1  UNL1       -0.2025
     18 N          61.3730   89.9766   11.1275 N.pl3   1  UNL1       -0.2958
     19 H          60.5164   90.3789   11.3987 H       1  UNL1        0.1537
     20 C          62.0736   86.0788   10.8696 C.ar    1  UNL1        0.0546
     21 C          61.4777   85.7719    9.5278 C.ar    1  UNL1        0.0055
     22 C          60.8469   86.8665    8.7191 C.ar    1  UNL1        0.0128
     23 C          60.8120   88.2681    9.2523 C.ar    1  UNL1        0.0711
     24 CL         60.1812   89.3627    8.4437 Cl      1  UNL1       -0.0810
     25 C          61.4079   88.5750   10.5943 C.ar    1  UNL1        0.0602
     26 C          62.0387   87.4804   11.4029 C.ar    1  UNL1        0.0200
     27 O          63.5453   83.9419   11.0026 O.2     1  UNL1       -0.2701
     28 C          62.7045   84.9842   11.6783 C.2     1  UNL1        0.2458
     29 N          62.4945   84.9320   13.1626 N.am    1  UNL1       -0.3025
     30 H          61.9427   85.6161   13.6060 H       1  UNL1        0.1497
     31 C          63.1253   83.8374   13.9712 C.3     1  UNL1        0.0720
     32 C          64.0972   83.3958   15.0249 C.3     1  UNL1        0.0213
     33 C          63.2461   82.3830   14.3179 C.3     1  UNL1        0.0213
@<TRIPOS>BOND
     1    27    28    2
     2    28    29   am
     3    29    31    1
     4    31    32    1
     5    32    33    1
     6    28    20    1
     7    20    21   ar
     8    21    22   ar
     9    22    23   ar
    10    23    24    1
    11    23    25   ar
    12    25    18    1
    13    18     1    1
    14     1     2   ar
    15     2     3   ar
    16     3     4   ar
    17     4     5   ar
    18     5     6   ar
    19     6     7   ar
    20     7     8   ar
    21     8     9   ar
    22     9    10    1
    23    10    11   ar
    24    11    12    1
    25    11    13   ar
    26    13    14   ar
    27    14    15   ar
    28    15    16   ar
    29    16    17    1
    30    25    26   ar
    31    33    31    1
    32    26    20   ar
    33     6     1   ar
    34    16    10   ar
    35     9     5   ar
    36    29    30    1
    37    18    19    1
@<TRIPOS>MOLECULE
*****
 33 37 0 0 0
SMALL
GASTEIGER

@<TRIPOS>ATOM
      1 C          62.2827   90.3274   11.6549 C.ar    1  UNL1        0.1569
      2 N          61.7079   89.6592   12.8685 N.ar    1  UNL1       -0.1326
      3 N          62.4473   89.7084   14.1727 N.ar    1  UNL1       -0.1436
      4 C          63.7615   90.4258   14.2631 C.ar    1  UNL1        0.1414
      5 C          64.3363   91.0940   13.0494 C.ar    1  UNL1        0.1081
      6 C          63.5969   91.0448   11.7453 C.ar    1  UNL1        0.0736
      7 C          64.4056   91.7905   10.7254 C.ar    1  UNL1        0.1249
      8 N          65.6449   92.3005   11.3993 N.ar    1  UNL1       -0.1632
      9 N          65.6020   91.8701   12.8356 N.ar    1  UNL1       -0.2235
     10 C          66.6423   92.1641   13.8756 C.ar    1  UNL1        0.1375
     11 C          66.2278   92.6206   15.2429 C.ar    1  UNL1        0.1599
     12 F          64.7730   92.7831   15.5705 F       1  UNL1       -0.2025
     13 C          67.2680   92.9146   16.2829 C.ar    1  UNL1        0.0313
     14 C          68.7228   92.7520   15.9554 C.ar    1  UNL1        0.0047
     15 C          69.1373   92.2955   14.5881 C.ar    1  UNL1        0.0313
     16 C          68.0970   92.0015   13.5481 C.ar    1  UNL1        0.1599
     17 F          68.5116   91.5450   12.1808 F       1  UNL1       -0.2025
     18 N          61.5433   90.2782   10.3506 N.pl3   1  UNL1       -0.2958
     19 H          61.2437   91.1128    9.9228 H       1  UNL1        0.1537
     20 C          61.7334   86.4130    9.4711 C.ar    1  UNL1        0.0546
     21 C          60.6944   86.3160    8.3936 C.ar    1  UNL1        0.0055
     22 C          59.9383   87.5398    7.9684 C.ar    1  UNL1        0.0128
     23 C          60.2213   88.8605    8.6207 C.ar    1  UNL1        0.0711
     24 CL         59.4653   90.0843    8.1956 Cl      1  UNL1       -0.0810
     25 C          61.2603   88.9575    9.6983 C.ar    1  UNL1        0.0602
     26 C          62.0163   87.7337   10.1234 C.ar    1  UNL1        0.0200
     27 O          63.4488   84.5331    8.9480 O.2     1  UNL1       -0.2701
     28 C          62.4894   85.1892    9.8963 C.2     1  UNL1        0.2458
     29 N          62.2862   84.6215   11.2697 N.am    1  UNL1       -0.3025
     30 H          61.6565   85.0521   11.8921 H       1  UNL1        0.1497
     31 C          63.0422   83.3977   11.6949 C.3     1  UNL1        0.0720
     32 C          63.0511   81.9633   12.1332 C.3     1  UNL1        0.0213
     33 C          64.3429   82.7126   11.9928 C.3     1  UNL1        0.0213
@<TRIPOS>BOND
     1    27    28    2
     2    28    29   am
     3    29    31    1
     4    31    32    1
     5    32    33    1
     6    28    20    1
     7    20    21   ar
     8    21    22   ar
     9    22    23   ar
    10    23    24    1
    11    23    25   ar
    12    25    18    1
    13    18     1    1
    14     1     2   ar
    15     2     3   ar
    16     3     4   ar
    17     4     5   ar
    18     5     6   ar
    19     6     7   ar
    20     7     8   ar
    21     8     9   ar
    22     9    10    1
    23    10    11   ar
    24    11    12    1
    25    11    13   ar
    26    13    14   ar
    27    14    15   ar
    28    15    16   ar
    29    16    17    1
    30    25    26   ar
    31    33    31    1
    32    26    20   ar
    33     6     1   ar
    34    16    10   ar
    35     9     5   ar
    36    29    30    1
    37    18    19    1
@<TRIPOS>MOLECULE
*****
 33 37 0 0 0
SMALL
GASTEIGER

@<TRIPOS>ATOM
      1 C          63.5611   87.9784   13.5660 C.ar    1  UNL1        0.1569
      2 N          64.4616   87.6373   14.7160 N.ar    1  UNL1       -0.1326
      3 N          64.8269   86.2074   14.9840 N.ar    1  UNL1       -0.1436
      4 C          64.2917   85.1186   14.1019 C.ar    1  UNL1        0.1414
      5 C          63.3912   85.4597   12.9518 C.ar    1  UNL1        0.1081
      6 C          63.0259   86.8896   12.6838 C.ar    1  UNL1        0.0736
      7 C          62.1247   86.9210   11.4851 C.ar    1  UNL1        0.1249
      8 N          61.9330   85.5105   11.0123 N.ar    1  UNL1       -0.1632
      9 N          62.7158   84.6074   11.9187 N.ar    1  UNL1       -0.2235
     10 C          62.8071   83.1140   11.8110 C.ar    1  UNL1        0.1375
     11 C          63.3275   82.4831   10.5537 C.ar    1  UNL1        0.1599
     12 F          63.7567   83.3456    9.4038 F       1  UNL1       -0.2025
     13 C          63.4189   80.9898   10.4460 C.ar    1  UNL1        0.0313
     14 C          62.9897   80.1273   11.5957 C.ar    1  UNL1        0.0047
     15 C          62.4693   80.7582   12.8531 C.ar    1  UNL1        0.0313
     16 C          62.3780   82.2515   12.9608 C.ar    1  UNL1        0.1599
     17 F          61.8575   82.8823   14.2182 F       1  UNL1       -0.2025
     18 N          63.1957   89.4084   13.2980 N.pl3   1  UNL1       -0.2958
     19 H          62.3230   89.6269   12.8981 H       1  UNL1        0.1537
     20 C          65.8843   92.2990   12.8908 C.ar    1  UNL1        0.0546
     21 C          66.0887   92.6996   14.3218 C.ar    1  UNL1        0.0055
     22 C          65.3288   92.0032   15.4115 C.ar    1  UNL1        0.0128
     23 C          64.3645   90.9061   15.0703 C.ar    1  UNL1        0.0711
     24 CL         63.6046   90.2096   16.1599 Cl      1  UNL1       -0.0810
     25 C          64.1601   90.5055   13.6392 C.ar    1  UNL1        0.0602
     26 C          64.9200   91.2019   12.5495 C.ar    1  UNL1        0.0200
     27 O          67.9156   92.3990   11.2740 O.2     1  UNL1       -0.2701
     28 C          66.6442   92.9955   11.8010 C.2     1  UNL1        0.2458
     29 N          66.1328   94.2884   11.2383 N.am    1  UNL1       -0.3025
     30 H          65.2983   94.6799   11.5842 H       1  UNL1        0.1497
     31 C          66.8927   94.9848   10.1486 C.3     1  UNL1        0.0720
     32 C          67.7612   94.9238    8.9272 C.3     1  UNL1        0.0213
     33 C          67.3403   96.2521    9.4826 C.3     1  UNL1        0.0213
@<TRIPOS>BOND
     1    27    28    2
     2    28    29   am
     3    29    31    1
     4    31    32    1
     5    32    33    1
     6    28    20    1
     7    20    21   ar
     8    21    22   ar
     9    22    23   ar
    10    23    24    1
    11    23    25   ar
    12    25    18    1
    13    18     1    1
    14     1     2   ar
    15     2     3   ar
    16     3     4   ar
    17     4     5   ar
    18     5     6   ar
    19     6     7   ar
    20     7     8   ar
    21     8     9   ar
    22     9    10    1
    23    10    11   ar
    24    11    12    1
    25    11    13   ar
    26    13    14   ar
    27    14    15   ar
    28    15    16   ar
    29    16    17    1
    30    25    26   ar
    31    33    31    1
    32    26    20   ar
    33     6     1   ar
    34    16    10   ar
    35     9     5   ar
    36    29    30    1
    37    18    19    1
@<TRIPOS>MOLECULE
*****
 33 37 0 0 0
SMALL
GASTEIGER

@<TRIPOS>ATOM
      1 C          61.5682   88.8828   11.4797 C.ar    1  UNL1        0.1569
      2 N          60.6544   88.7119   10.3025 N.ar    1  UNL1       -0.1326
      3 N          60.4637   87.3551    9.6920 N.ar    1  UNL1       -0.1436
      4 C          61.1868   86.1693   10.2586 C.ar    1  UNL1        0.1414
      5 C          62.1006   86.3403   11.4358 C.ar    1  UNL1        0.1081
      6 C          62.2913   87.6970   12.0463 C.ar    1  UNL1        0.0736
      7 C          63.2491   87.5591   13.1925 C.ar    1  UNL1        0.1249
      8 N          63.6503   86.1171   13.2903 N.ar    1  UNL1       -0.1632
      9 N          62.9405   85.3638   12.2046 N.ar    1  UNL1       -0.2235
     10 C          63.0511   83.8924   11.9350 C.ar    1  UNL1        0.1375
     11 C          62.6406   82.9043   12.9862 C.ar    1  UNL1        0.1599
     12 F          62.1193   83.3876   14.3071 F       1  UNL1       -0.2025
     13 C          62.7512   81.4329   12.7166 C.ar    1  UNL1        0.0313
     14 C          63.2725   80.9495   11.3958 C.ar    1  UNL1        0.0047
     15 C          63.6831   81.9376   10.3446 C.ar    1  UNL1        0.0313
     16 C          63.5724   83.4090   10.6141 C.ar    1  UNL1        0.1599
     17 F          63.9830   84.3971    9.5629 F       1  UNL1       -0.2025
     18 N          61.7589   90.2396   12.0903 N.pl3   1  UNL1       -0.2958
     19 H          61.0312   90.6527   12.6090 H       1  UNL1        0.1537
     20 C          65.2120   92.0097   12.9230 C.ar    1  UNL1        0.0546
     21 C          65.6574   92.4217   11.5512 C.ar    1  UNL1        0.0055
     22 C          64.8033   92.1064   10.3590 C.ar    1  UNL1        0.0128
     23 C          63.5038   91.3790   10.5387 C.ar    1  UNL1        0.0711
     24 CL         62.6497   91.0637    9.3467 Cl      1  UNL1       -0.0810
     25 C          63.0584   90.9670   11.9106 C.ar    1  UNL1        0.0602
     26 C          63.9125   91.2823   13.1027 C.ar    1  UNL1        0.0200
     27 O          65.4617   92.3398   15.4879 O.2     1  UNL1       -0.2701
     28 C          66.0661   92.3250   14.1151 C.2     1  UNL1        0.2458
     29 N          67.5245   92.6254   13.9345 N.am    1  UNL1       -0.3025
     30 H          67.9212   92.6156   13.0335 H       1  UNL1        0.1497
     31 C          68.3785   92.9407   15.1266 C.3     1  UNL1        0.0720
     32 C          69.1375   92.4857   16.3378 C.3     1  UNL1        0.0213
     33 C          69.0988   93.9419   15.9804 C.3     1  UNL1        0.0213
@<TRIPOS>BOND
     1    27    28    2
     2    28    29   am
     3    29    31    1
     4    31    32    1
     5    32    33    1
     6    28    20    1
     7    20    21   ar
     8    21    22   ar
     9    22    23   ar
    10    23    24    1
    11    23    25   ar
    12    25    18    1
    13    18     1    1
    14     1     2   ar
    15     2     3   ar
    16     3     4   ar
    17     4     5   ar
    18     5     6   ar
    19     6     7   ar
    20     7     8   ar
    21     8     9   ar
    22     9    10    1
    23    10    11   ar
    24    11    12    1
    25    11    13   ar
    26    13    14   ar
    27    14    15   ar
    28    15    16   ar
    29    16    17    1
    30    25    26   ar
    31    33    31    1
    32    26    20   ar
    33     6     1   ar
    34    16    10   ar
    35     9     5   ar
    36    29    30    1
    37    18    19    1
@<TRIPOS>MOLECULE
*****
 33 37 0 0 0
SMALL
GASTEIGER

@<TRIPOS>ATOM
      1 C          62.5597   89.3479   11.8106 C.ar    1  UNL1        0.1569
      2 N          61.9158   89.4065   10.4571 N.ar    1  UNL1       -0.1326
      3 N          61.6676   88.1421    9.6893 N.ar    1  UNL1       -0.1436
      4 C          62.0632   86.8190   10.2750 C.ar    1  UNL1        0.1414
      5 C          62.7071   86.7604   11.6284 C.ar    1  UNL1        0.1081
      6 C          62.9553   88.0248   12.3963 C.ar    1  UNL1        0.0736
      7 C          63.6028   87.6569   13.6984 C.ar    1  UNL1        0.1249
      8 N          63.7548   86.1651   13.7353 N.ar    1  UNL1       -0.1632
      9 N          63.2012   85.6110   12.4560 N.ar    1  UNL1       -0.2235
     10 C          63.1505   84.1620   12.0717 C.ar    1  UNL1        0.1375
     11 C          63.6389   83.7265   10.7219 C.ar    1  UNL1        0.1599
     12 F          64.1779   84.7400    9.7564 F       1  UNL1       -0.2025
     13 C          63.5882   82.2774   10.3376 C.ar    1  UNL1        0.0313
     14 C          63.0492   81.2638   11.3031 C.ar    1  UNL1        0.0047
     15 C          62.5609   81.6993   12.6528 C.ar    1  UNL1        0.0313
     16 C          62.6115   83.1484   13.0371 C.ar    1  UNL1        0.1599
     17 F          62.1232   83.5838   14.3869 F       1  UNL1       -0.2025
     18 N          62.8079   90.6123   12.5785 N.pl3   1  UNL1       -0.2958
     19 H          62.0699   91.0458   13.0650 H       1  UNL1        0.1537
     20 C          66.0357   92.6382   11.4705 C.ar    1  UNL1        0.0546
     21 C          66.9262   92.4244   12.6584 C.ar    1  UNL1        0.0055
     22 C          66.4440   91.6065   13.8198 C.ar    1  UNL1        0.0128
     23 C          65.0712   91.0025   13.7931 C.ar    1  UNL1        0.0711
     24 CL         64.5890   90.1847   14.9544 Cl      1  UNL1       -0.0810
     25 C          64.1807   91.2163   12.6051 C.ar    1  UNL1        0.0602
     26 C          64.6629   92.0341   11.4439 C.ar    1  UNL1        0.0200
     27 O          67.5884   92.9185    9.4064 O.2     1  UNL1       -0.2701
     28 C          66.5179   93.4560   10.3091 C.2     1  UNL1        0.2458
     29 N          65.9295   94.8113   10.0505 N.am    1  UNL1       -0.3025
     30 H          65.2268   95.1641   10.6430 H       1  UNL1        0.1497
     31 C          66.4117   95.6291    8.8892 C.3     1  UNL1        0.0720
     32 C          67.5344   96.2721    8.1304 C.3     1  UNL1        0.0213
     33 C          66.1241   96.4024    7.6365 C.3     1  UNL1        0.0213
@<TRIPOS>BOND
     1    27    28    2
     2    28    29   am
     3    29    31    1
     4    31    32    1
     5    32    33    1
     6    28    20    1
     7    20    21   ar
     8    21    22   ar
     9    22    23   ar
    10    23    24    1
    11    23    25   ar
    12    25    18    1
    13    18     1    1
    14     1     2   ar
    15     2     3   ar
    16     3     4   ar
    17     4     5   ar
    18     5     6   ar
    19     6     7   ar
    20     7     8   ar
    21     8     9   ar
    22     9    10    1
    23    10    11   ar
    24    11    12    1
    25    11    13   ar
    26    13    14   ar
    27    14    15   ar
    28    15    16   ar
    29    16    17    1
    30    25    26   ar
    31    33    31    1
    32    26    20   ar
    33     6     1   ar
    34    16    10   ar
    35     9     5   ar
    36    29    30    1
    37    18    19    1
@<TRIPOS>MOLECULE
*****
 33 37 0 0 0
SMALL
GASTEIGER

@<TRIPOS>ATOM
      1 C          63.0978   88.3169   13.1300 C.ar    1  UNL1        0.1569
      2 N          64.0271   88.1317   14.2927 N.ar    1  UNL1       -0.1326
      3 N          64.5160   86.7595   14.6508 N.ar    1  UNL1       -0.1436
      4 C          64.0755   85.5727   13.8462 C.ar    1  UNL1        0.1414
      5 C          63.1462   85.7580   12.6835 C.ar    1  UNL1        0.1081
      6 C          62.6573   87.1301   12.3254 C.ar    1  UNL1        0.0736
      7 C          61.7540   87.0042   11.1344 C.ar    1  UNL1        0.1249
      8 N          61.6847   85.5543   10.7565 N.ar    1  UNL1       -0.1632
      9 N          62.5451   84.7841   11.7139 N.ar    1  UNL1       -0.2235
     10 C          62.7657   83.3004   11.7035 C.ar    1  UNL1        0.1375
     11 C          62.3962   82.4788   12.9028 C.ar    1  UNL1        0.1599
     12 F          61.8061   83.1408   14.1126 F       1  UNL1       -0.2025
     13 C          62.6167   80.9951   12.8924 C.ar    1  UNL1        0.0313
     14 C          63.2068   80.3330   11.6827 C.ar    1  UNL1        0.0047
     15 C          63.5763   81.1547   10.4834 C.ar    1  UNL1        0.0313
     16 C          63.3557   82.6383   10.4938 C.ar    1  UNL1        0.1599
     17 F          63.7253   83.4599    9.2944 F       1  UNL1       -0.2025
     18 N          62.6089   89.6891   12.7718 N.pl3   1  UNL1       -0.2958
     19 H          61.6547   89.9121   12.8670 H       1  UNL1        0.1537
     20 C          65.5154   92.3906   12.7092 C.ar    1  UNL1        0.0546
     21 C          65.5037   92.7861   11.2624 C.ar    1  UNL1        0.0055
     22 C          64.5270   92.1493   10.3186 C.ar    1  UNL1        0.0128
     23 C          63.5621   91.1170   10.8217 C.ar    1  UNL1        0.0711
     24 CL         62.5854   90.4802    9.8781 Cl      1  UNL1       -0.0810
     25 C          63.5738   90.7214   12.2687 C.ar    1  UNL1        0.0602
     26 C          64.5505   91.3582   13.2123 C.ar    1  UNL1        0.0200
     27 O          66.5052   94.5173   13.8261 O.2     1  UNL1       -0.2701
     28 C          66.4921   93.0274   13.6530 C.2     1  UNL1        0.2458
     29 N          67.4556   92.1743   14.4236 N.am    1  UNL1       -0.3025
     30 H          67.4470   91.1964   14.3100 H       1  UNL1        0.1497
     31 C          68.4322   92.8111   15.3673 C.3     1  UNL1        0.0720
     32 C          68.9872   94.0366   16.0307 C.3     1  UNL1        0.0213
     33 C          69.5688   92.6886   16.3385 C.3     1  UNL1        0.0213
@<TRIPOS>BOND
     1    27    28    2
     2    28    29   am
     3    29    31    1
     4    31    32    1
     5    32    33    1
     6    28    20    1
     7    20    21   ar
     8    21    22   ar
     9    22    23   ar
    10    23    24    1
    11    23    25   ar
    12    25    18    1
    13    18     1    1
    14     1     2   ar
    15     2     3   ar
    16     3     4   ar
    17     4     5   ar
    18     5     6   ar
    19     6     7   ar
    20     7     8   ar
    21     8     9   ar
    22     9    10    1
    23    10    11   ar
    24    11    12    1
    25    11    13   ar
    26    13    14   ar
    27    14    15   ar
    28    15    16   ar
    29    16    17    1
    30    25    26   ar
    31    33    31    1
    32    26    20   ar
    33     6     1   ar
    34    16    10   ar
    35     9     5   ar
    36    29    30    1
    37    18    19    1
@<TRIPOS>MOLECULE
*****
 33 37 0 0 0
SMALL
GASTEIGER

@<TRIPOS>ATOM
      1 C          62.8724   89.1637   13.0415 C.ar    1  UNL1        0.1569
      2 N          63.4483   87.9740   13.7505 N.ar    1  UNL1       -0.1326
      3 N          63.4541   86.6320   13.0805 N.ar    1  UNL1       -0.1436
      4 C          62.8841   86.4798   11.7014 C.ar    1  UNL1        0.1414
      5 C          62.3082   87.6695   10.9923 C.ar    1  UNL1        0.1081
      6 C          62.3024   89.0115   11.6624 C.ar    1  UNL1        0.0736
      7 C          61.6713   89.9960   10.7228 C.ar    1  UNL1        0.1249
      8 N          61.2872   89.2624    9.4722 N.ar    1  UNL1       -0.1632
      9 N          61.6808   87.8246    9.6387 N.ar    1  UNL1       -0.2235
     10 C          61.4819   86.7334    8.6289 C.ar    1  UNL1        0.1375
     11 C          62.6579   85.9420    8.1383 C.ar    1  UNL1        0.1599
     12 F          64.0329   86.2419    8.6574 F       1  UNL1       -0.2025
     13 C          62.4590   84.8508    7.1285 C.ar    1  UNL1        0.0313
     14 C          61.0840   84.5509    6.6093 C.ar    1  UNL1        0.0047
     15 C          59.9080   85.3422    7.1000 C.ar    1  UNL1        0.0313
     16 C          60.1069   86.4334    8.1098 C.ar    1  UNL1        0.1599
     17 F          58.9308   87.2247    8.6004 F       1  UNL1       -0.2025
     18 N          62.8666   90.5058   13.7115 N.pl3   1  UNL1       -0.2958
     19 H          62.0391   90.8483   14.1203 H       1  UNL1        0.1537
     20 C          65.9685   92.6849   12.5371 C.ar    1  UNL1        0.0546
     21 C          66.6316   92.9664   13.8528 C.ar    1  UNL1        0.0055
     22 C          66.0397   92.4276   15.1215 C.ar    1  UNL1        0.0128
     23 C          64.7847   91.6074   15.0744 C.ar    1  UNL1        0.0711
     24 CL         64.1928   91.0687   16.3429 Cl      1  UNL1       -0.0810
     25 C          64.1216   91.3260   13.7586 C.ar    1  UNL1        0.0602
     26 C          64.7135   91.8647   12.4900 C.ar    1  UNL1        0.0200
     27 O          67.4136   92.3421   10.4054 O.2     1  UNL1       -0.2701
     28 C          66.5605   93.2237   11.2685 C.2     1  UNL1        0.2458
     29 N          66.2992   94.6440   10.8629 N.am    1  UNL1       -0.3025
     30 H          65.7393   95.2226   11.4294 H       1  UNL1        0.1497
     31 C          66.8911   95.1827    9.5943 C.3     1  UNL1        0.0720
     32 C          67.5101   96.3134    8.8273 C.3     1  UNL1        0.0213
     33 C          67.2974   94.9850    8.1640 C.3     1  UNL1        0.0213
@<TRIPOS>BOND
     1    27    28    2
     2    28    29   am
     3    29    31    1
     4    31    32    1
     5    32    33    1
     6    28    20    1
     7    20    21   ar
     8    21    22   ar
     9    22    23   ar
    10    23    24    1
    11    23    25   ar
    12    25    18    1
    13    18     1    1
    14     1     2   ar
    15     2     3   ar
    16     3     4   ar
    17     4     5   ar
    18     5     6   ar
    19     6     7   ar
    20     7     8   ar
    21     8     9   ar
    22     9    10    1
    23    10    11   ar
    24    11    12    1
    25    11    13   ar
    26    13    14   ar
    27    14    15   ar
    28    15    16   ar
    29    16    17    1
    30    25    26   ar
    31    33    31    1
    32    26    20   ar
    33     6     1   ar
    34    16    10   ar
    35     9     5   ar
    36    29    30    1
    37    18    19    1
@<TRIPOS>MOLECULE
*****
 33 37 0 0 0
SMALL
GASTEIGER

@<TRIPOS>ATOM
      1 C          63.9652   85.8804   13.9185 C.ar    1  UNL1        0.1569
      2 N          63.8327   84.3874   13.9733 N.ar    1  UNL1       -0.1326
      3 N          63.0735   83.6620   12.9022 N.ar    1  UNL1       -0.1436
      4 C          62.4467   84.4298   11.7763 C.ar    1  UNL1        0.1414
      5 C          62.5792   85.9229   11.7214 C.ar    1  UNL1        0.1081
      6 C          63.3385   86.6482   12.7926 C.ar    1  UNL1        0.0736
      7 C          63.3017   88.1139   12.4753 C.ar    1  UNL1        0.1249
      8 N          62.5197   88.2943   11.2080 N.ar    1  UNL1       -0.1632
      9 N          62.0732   86.9402   10.7422 N.ar    1  UNL1       -0.2235
     10 C          61.2629   86.6536    9.5128 C.ar    1  UNL1        0.1375
     11 C          59.8753   87.2084    9.3829 C.ar    1  UNL1        0.1599
     12 F          59.2980   88.0497   10.4824 F       1  UNL1       -0.2025
     13 C          59.0650   86.9219    8.1536 C.ar    1  UNL1        0.0313
     14 C          59.6423   86.0806    7.0540 C.ar    1  UNL1        0.0047
     15 C          61.0298   85.5258    7.1839 C.ar    1  UNL1        0.0313
     16 C          61.8402   85.8123    8.4133 C.ar    1  UNL1        0.1599
     17 F          63.2277   85.2576    8.5431 F       1  UNL1       -0.2025
     18 N          64.7246   86.6059   14.9896 N.pl3   1  UNL1       -0.2958
     19 H          65.4712   86.1604   15.4515 H       1  UNL1        0.1537
     20 C          64.5511   90.5706   14.9678 C.ar    1  UNL1        0.0546
     21 C          63.5896   90.8185   16.0920 C.ar    1  UNL1        0.0055
     22 C          63.0063   89.6622   16.8489 C.ar    1  UNL1        0.0128
     23 C          63.3846   88.2580   16.4814 C.ar    1  UNL1        0.0711
     24 CL         62.8014   87.1016   17.2381 Cl      1  UNL1       -0.0810
     25 C          64.3462   88.0101   15.3571 C.ar    1  UNL1        0.0602
     26 C          64.9294   89.1664   14.6004 C.ar    1  UNL1        0.0200
     27 O          65.7836   92.8578   14.9526 O.2     1  UNL1       -0.2701
     28 C          65.1344   91.7270   14.2110 C.2     1  UNL1        0.2458
     29 N          65.0685   91.7525   12.7127 N.am    1  UNL1       -0.3025
     30 H          64.6424   91.0104   12.2260 H       1  UNL1        0.1497
     31 C          65.6517   92.9089   11.9560 C.3     1  UNL1        0.0720
     32 C          66.1726   94.3153   11.9316 C.3     1  UNL1        0.0213
     33 C          66.1411   93.5052   10.6695 C.3     1  UNL1        0.0213
@<TRIPOS>BOND
     1    27    28    2
     2    28    29   am
     3    29    31    1
     4    31    32    1
     5    32    33    1
     6    28    20    1
     7    20    21   ar
     8    21    22   ar
     9    22    23   ar
    10    23    24    1
    11    23    25   ar
    12    25    18    1
    13    18     1    1
    14     1     2   ar
    15     2     3   ar
    16     3     4   ar
    17     4     5   ar
    18     5     6   ar
    19     6     7   ar
    20     7     8   ar
    21     8     9   ar
    22     9    10    1
    23    10    11   ar
    24    11    12    1
    25    11    13   ar
    26    13    14   ar
    27    14    15   ar
    28    15    16   ar
    29    16    17    1
    30    25    26   ar
    31    33    31    1
    32    26    20   ar
    33     6     1   ar
    34    16    10   ar
    35     9     5   ar
    36    29    30    1
    37    18    19    1
@<TRIPOS>MOLECULE
*****
 33 37 0 0 0
SMALL
GASTEIGER

@<TRIPOS>ATOM
      1 C          63.9024   84.8729   14.0391 C.ar    1  UNL1        0.1569
      2 N          63.8500   83.3779   13.9292 N.ar    1  UNL1       -0.1326
      3 N          63.2634   82.7359   12.7071 N.ar    1  UNL1       -0.1436
      4 C          62.7292   83.5889   11.5948 C.ar    1  UNL1        0.1414
      5 C          62.7817   85.0839   11.7047 C.ar    1  UNL1        0.1081
      6 C          63.3683   85.7259   12.9268 C.ar    1  UNL1        0.0736
      7 C          63.2851   87.2137   12.7542 C.ar    1  UNL1        0.1249
      8 N          62.6471   87.4911   11.4253 N.ar    1  UNL1       -0.1632
      9 N          62.3359   86.1748   10.7767 N.ar    1  UNL1       -0.2235
     10 C          61.6921   85.9831    9.4355 C.ar    1  UNL1        0.1375
     11 C          62.3974   85.1969    8.3705 C.ar    1  UNL1        0.1599
     12 F          63.7467   84.6025    8.6465 F       1  UNL1       -0.2025
     13 C          61.7536   85.0052    7.0293 C.ar    1  UNL1        0.0313
     14 C          60.4044   85.5996    6.7532 C.ar    1  UNL1        0.0047
     15 C          59.6990   86.3858    7.8183 C.ar    1  UNL1        0.0313
     16 C          60.3429   86.5775    9.1594 C.ar    1  UNL1        0.1599
     17 F          59.6375   87.3636   10.2245 F       1  UNL1       -0.2025
     18 N          64.4890   85.5150   15.2613 N.pl3   1  UNL1       -0.2958
     19 H          65.1557   85.0307   15.7999 H       1  UNL1        0.1537
     20 C          64.0658   89.4610   15.2551 C.ar    1  UNL1        0.0546
     21 C          63.2015   89.6553   16.4655 C.ar    1  UNL1        0.0055
     22 C          62.7663   88.4695   17.2746 C.ar    1  UNL1        0.0128
     23 C          63.1955   87.0894   16.8732 C.ar    1  UNL1        0.0711
     24 CL         62.7604   85.9036   17.6822 Cl      1  UNL1       -0.0810
     25 C          64.0598   86.8951   15.6627 C.ar    1  UNL1        0.0602
     26 C          64.4950   88.0809   14.8537 C.ar    1  UNL1        0.0200
     27 O          63.5317   91.3188   13.5192 O.2     1  UNL1       -0.2701
     28 C          64.5009   90.6468   14.4461 C.2     1  UNL1        0.2458
     29 N          65.9052   91.1606   14.5638 N.am    1  UNL1       -0.3025
     30 H          66.5414   90.7195   15.1721 H       1  UNL1        0.1497
     31 C          66.3403   92.3463   13.7548 C.3     1  UNL1        0.0720
     32 C          66.8183   92.9295   12.4581 C.3     1  UNL1        0.0213
     33 C          66.6160   93.8171   13.6502 C.3     1  UNL1        0.0213
@<TRIPOS>BOND
     1    27    28    2
     2    28    29   am
     3    29    31    1
     4    31    32    1
     5    32    33    1
     6    28    20    1
     7    20    21   ar
     8    21    22   ar
     9    22    23   ar
    10    23    24    1
    11    23    25   ar
    12    25    18    1
    13    18     1    1
    14     1     2   ar
    15     2     3   ar
    16     3     4   ar
    17     4     5   ar
    18     5     6   ar
    19     6     7   ar
    20     7     8   ar
    21     8     9   ar
    22     9    10    1
    23    10    11   ar
    24    11    12    1
    25    11    13   ar
    26    13    14   ar
    27    14    15   ar
    28    15    16   ar
    29    16    17    1
    30    25    26   ar
    31    33    31    1
    32    26    20   ar
    33     6     1   ar
    34    16    10   ar
    35     9     5   ar
    36    29    30    1
    37    18    19    1
