@<TRIPOS>MOLECULE
*****
 33 36 0 0 0
SMALL
GASTEIGER

@<TRIPOS>ATOM
      1 C          62.2523   89.3439   12.2503 C.3     1  UNL1        0.1092
      2 C          62.6302   90.0699   13.5073 C.3     1  UNL1        0.1598
      3 O          63.4270   89.3691   14.5674 O.3     1  UNL1       -0.3507
      4 C          63.8460   87.9423   14.3704 C.3     1  UNL1        0.1636
      5 C          63.4682   87.2164   13.1134 C.3     1  UNL1        0.1527
      6 N          62.6713   87.9172   12.0533 N.3     1  UNL1       -0.1496
      7 C          62.4226   90.8526   10.3766 C.3     1  UNL1        0.0015
      8 C          61.4554   90.0447   11.1901 C.3     1  UNL1        0.0175
      9 C          60.2773   90.4876   10.3740 C.3     1  UNL1        0.0015
     10 C          60.0811   89.5454   11.5247 C.3     1  UNL1        0.0015
     11 S          62.2934   87.1912   10.7962 S.O2    1  UNL1        0.0635
     12 O          61.3715   86.3079   11.5834 O.2     1  UNL1       -0.1528
     13 O          63.1624   87.9795    9.8616 O.2     1  UNL1       -0.1528
     14 C          61.9155   86.4653    9.5391 C.ar    1  UNL1        0.1223
     15 C          60.5421   86.6336    8.9599 C.ar    1  UNL1        0.0208
     16 C          60.1642   85.9077    7.7028 C.ar    1  UNL1        0.0128
     17 C          61.1597   85.0134    7.0250 C.ar    1  UNL1        0.0578
     18 CL         60.7818   84.2875    5.7680 Cl      1  UNL1       -0.0822
     19 C          62.5330   84.8451    7.6042 C.ar    1  UNL1        0.0128
     20 C          62.9110   85.5711    8.8613 C.ar    1  UNL1        0.0208
     21 C          63.8872   85.7896   12.9164 C.3     1  UNL1        0.2302
     22 O          64.3419   84.9727   14.0894 O.3     1  UNL1       -0.4329
     23 C          63.7223   83.6328   14.3555 C.2     1  UNL1        0.4049
     24 O          63.3223   83.2554   15.7511 O.2     1  UNL1       -0.2262
     25 N          63.5027   82.6704   13.2261 N.am    1  UNL1       -0.2460
     26 C          63.9026   83.0479   11.8306 C.3     1  UNL1        0.0968
     27 C          63.6830   82.0855   10.7011 C.3     1  UNL1        0.0242
     28 C          63.0634   80.7456   10.9673 C.3     1  UNL1        0.0327
     29 C          62.6634   80.3681   12.3629 C.3     1  UNL1        0.0242
     30 C          62.8830   81.3305   13.4922 C.3     1  UNL1        0.0968
     31 C          62.8437   79.7832    9.8379 C.3     1  UNL1        0.1372
     32 O          62.6469   78.3239   10.1237 O.3     1  UNL1       -0.3820
     33 H          63.4629   77.9543   10.4956 H       1  UNL1        0.2104
@<TRIPOS>BOND
     1     7     8    1
     2     1     8    1
     3     1     2    1
     4     2     3    1
     5     3     4    1
     6     4     5    1
     7     5    21    1
     8    21    22    1
     9    22    23    1
    10    23    24    2
    11    23    25   am
    12    25    26    1
    13    26    27    1
    14    27    28    1
    15    28    31    1
    16    31    32    1
    17    28    29    1
    18    29    30    1
    19     5     6    1
    20     6    11    1
    21    11    12    2
    22    11    13    2
    23    11    14    1
    24    14    15   ar
    25    15    16   ar
    26    16    17   ar
    27    17    18    1
    28    17    19   ar
    29    19    20   ar
    30     8     9    1
    31     9    10    1
    32    10     8    1
    33     6     1    1
    34    20    14   ar
    35    30    25    1
    36    32    33    1
@<TRIPOS>MOLECULE
*****
 33 36 0 0 0
SMALL
GASTEIGER

@<TRIPOS>ATOM
      1 C          66.0835   91.4767   14.1676 C.3     1  UNL1        0.1092
      2 C          65.6124   90.4542   15.1587 C.3     1  UNL1        0.1598
      3 O          64.3418   89.6972   14.9088 O.3     1  UNL1       -0.3507
      4 C          63.5423   89.9627   13.6676 C.3     1  UNL1        0.1636
      5 C          64.0135   90.9852   12.6765 C.3     1  UNL1        0.1527
      6 N          65.2840   91.7422   12.9265 N.3     1  UNL1       -0.1496
      7 C          68.3512   91.7654   13.3995 C.3     1  UNL1        0.0015
      8 C          67.3541   92.2338   14.4176 C.3     1  UNL1        0.0175
      9 C          68.3243   93.1919   15.0427 C.3     1  UNL1        0.0015
     10 C          66.9304   93.0755   15.5846 C.3     1  UNL1        0.0015
     11 S          65.7552   92.7649   11.9353 S.O2    1  UNL1        0.0635
     12 O          65.4174   93.8592   12.9039 O.2     1  UNL1       -0.1528
     13 O          66.1479   91.8033   10.8532 O.2     1  UNL1       -0.1528
     14 C          66.2263   93.7874   10.9442 C.ar    1  UNL1        0.1223
     15 C          67.1605   93.3877    9.8407 C.ar    1  UNL1        0.0208
     16 C          67.6316   94.4103    8.8496 C.ar    1  UNL1        0.0128
     17 C          67.1687   95.8327    8.9620 C.ar    1  UNL1        0.0578
     18 CL         67.6398   96.8552    7.9709 Cl      1  UNL1       -0.0822
     19 C          66.2346   96.2324   10.0655 C.ar    1  UNL1        0.0128
     20 C          65.7634   95.2098   11.0566 C.ar    1  UNL1        0.0208
     21 C          63.2140   91.2508   11.4354 C.3     1  UNL1        0.2302
     22 O          61.8624   90.6229   11.2652 O.3     1  UNL1       -0.4329
     23 C          61.6316   89.6249   10.1694 C.2     1  UNL1        0.4049
     24 O          61.0934   90.0770    8.8444 O.2     1  UNL1       -0.2262
     25 N          61.9391   88.1747   10.3988 N.am    1  UNL1       -0.2460
     26 C          62.4773   87.7226   11.7239 C.3     1  UNL1        0.0968
     27 C          62.7847   86.2724   11.9533 C.3     1  UNL1        0.0242
     28 C          62.5539   85.2744   10.8575 C.3     1  UNL1        0.0327
     29 C          62.0157   85.7266    9.5323 C.3     1  UNL1        0.0242
     30 C          61.7083   87.1767    9.3030 C.3     1  UNL1        0.0968
     31 C          62.8613   83.8243   11.0868 C.3     1  UNL1        0.1372
     32 O          64.2828   83.3768   11.2571 O.3     1  UNL1       -0.3820
     33 H          64.7672   83.5164   10.4283 H       1  UNL1        0.2104
@<TRIPOS>BOND
     1     7     8    1
     2     1     8    1
     3     1     2    1
     4     2     3    1
     5     3     4    1
     6     4     5    1
     7     5    21    1
     8    21    22    1
     9    22    23    1
    10    23    24    2
    11    23    25   am
    12    25    26    1
    13    26    27    1
    14    27    28    1
    15    28    31    1
    16    31    32    1
    17    28    29    1
    18    29    30    1
    19     5     6    1
    20     6    11    1
    21    11    12    2
    22    11    13    2
    23    11    14    1
    24    14    15   ar
    25    15    16   ar
    26    16    17   ar
    27    17    18    1
    28    17    19   ar
    29    19    20   ar
    30     8     9    1
    31     9    10    1
    32    10     8    1
    33     6     1    1
    34    20    14   ar
    35    30    25    1
    36    32    33    1
@<TRIPOS>MOLECULE
*****
 33 36 0 0 0
SMALL
GASTEIGER

@<TRIPOS>ATOM
      1 C          63.3589   84.0158   14.1838 C.3     1  UNL1        0.1092
      2 C          63.7832   84.0341   15.6224 C.3     1  UNL1        0.1598
      3 O          64.2328   85.3174   16.2555 O.3     1  UNL1       -0.3507
      4 C          64.2582   86.5825   15.4499 C.3     1  UNL1        0.1636
      5 C          63.8339   86.5643   14.0114 C.3     1  UNL1        0.1527
      6 N          63.3843   85.2810   13.3783 N.3     1  UNL1       -0.1496
      7 C          64.0273   82.2640   12.6672 C.3     1  UNL1        0.0015
      8 C          62.9093   82.7325   13.5506 C.3     1  UNL1        0.0175
      9 C          62.0398   81.5599   13.2054 C.3     1  UNL1        0.0015
     10 C          61.5444   82.6058   14.1598 C.3     1  UNL1        0.0015
     11 S          62.9600   85.2627   11.9396 S.O2    1  UNL1        0.0635
     12 O          61.6301   85.8398   12.3245 O.2     1  UNL1       -0.1528
     13 O          64.2283   84.6877   11.3822 O.2     1  UNL1       -0.1528
     14 C          62.5357   85.2444   10.5010 C.ar    1  UNL1        0.1223
     15 C          63.3462   84.4895    9.4895 C.ar    1  UNL1        0.0208
     16 C          62.9219   84.4712    8.0509 C.ar    1  UNL1        0.0128
     17 C          61.6870   85.2079    7.6238 C.ar    1  UNL1        0.0578
     18 CL         61.2627   85.1896    6.1852 Cl      1  UNL1       -0.0822
     19 C          60.8765   85.9628    8.6352 C.ar    1  UNL1        0.0128
     20 C          61.3008   85.9811   10.0739 C.ar    1  UNL1        0.0208
     21 C          63.8593   87.8294   13.2058 C.3     1  UNL1        0.2302
     22 O          62.9136   88.9465   13.5340 O.3     1  UNL1       -0.4329
     23 C          63.1052   89.7475   14.7877 C.2     1  UNL1        0.4049
     24 O          62.1483   89.5897   15.9320 O.2     1  UNL1       -0.2262
     25 N          64.2536   90.7063   14.8970 N.am    1  UNL1       -0.2460
     26 C          65.2104   90.8641   13.7527 C.3     1  UNL1        0.0968
     27 C          66.3589   91.8228   13.8620 C.3     1  UNL1        0.0242
     28 C          66.5504   92.6238   15.1157 C.3     1  UNL1        0.0327
     29 C          65.5935   92.4660   16.2601 C.3     1  UNL1        0.0242
     30 C          64.4451   91.5072   16.1507 C.3     1  UNL1        0.0968
     31 C          67.6988   93.5825   15.2251 C.3     1  UNL1        0.1372
     32 O          69.0916   93.1236   14.9099 O.3     1  UNL1       -0.3820
     33 H          69.3696   92.4621   15.5626 H       1  UNL1        0.2104
@<TRIPOS>BOND
     1     7     8    1
     2     1     8    1
     3     1     2    1
     4     2     3    1
     5     3     4    1
     6     4     5    1
     7     5    21    1
     8    21    22    1
     9    22    23    1
    10    23    24    2
    11    23    25   am
    12    25    26    1
    13    26    27    1
    14    27    28    1
    15    28    31    1
    16    31    32    1
    17    28    29    1
    18    29    30    1
    19     5     6    1
    20     6    11    1
    21    11    12    2
    22    11    13    2
    23    11    14    1
    24    14    15   ar
    25    15    16   ar
    26    16    17   ar
    27    17    18    1
    28    17    19   ar
    29    19    20   ar
    30     8     9    1
    31     9    10    1
    32    10     8    1
    33     6     1    1
    34    20    14   ar
    35    30    25    1
    36    32    33    1
@<TRIPOS>MOLECULE
*****
 33 36 0 0 0
SMALL
GASTEIGER

@<TRIPOS>ATOM
      1 C          63.4389   84.1208   14.0381 C.3     1  UNL1        0.1092
      2 C          63.8737   84.1745   15.4727 C.3     1  UNL1        0.1598
      3 O          64.2346   85.4891   16.0983 O.3     1  UNL1       -0.3507
      4 C          64.1606   86.7501   15.2893 C.3     1  UNL1        0.1636
      5 C          63.7258   86.6965   13.8547 C.3     1  UNL1        0.1527
      6 N          63.3650   85.3818   13.2291 N.3     1  UNL1       -0.1496
      7 C          64.2651   82.3615   12.6104 C.3     1  UNL1        0.0015
      8 C          63.0780   82.8061   13.4124 C.3     1  UNL1        0.0175
      9 C          62.2765   81.5923   13.0459 C.3     1  UNL1        0.0015
     10 C          61.6842   82.6399   13.9413 C.3     1  UNL1        0.0015
     11 S          62.9302   85.3281   11.7945 S.O2    1  UNL1        0.0635
     12 O          61.6056   85.9209   12.1738 O.2     1  UNL1       -0.1528
     13 O          64.1919   84.7332   11.2432 O.2     1  UNL1       -0.1528
     14 C          62.4953   85.2744   10.3599 C.ar    1  UNL1        0.1223
     15 C          63.3188   84.5259    9.3541 C.ar    1  UNL1        0.0208
     16 C          62.8840   84.4722    7.9195 C.ar    1  UNL1        0.0128
     17 C          61.6257   85.1670    7.4907 C.ar    1  UNL1        0.0578
     18 CL         61.1908   85.1134    6.0562 Cl      1  UNL1       -0.0822
     19 C          60.8022   85.9155    8.4965 C.ar    1  UNL1        0.0128
     20 C          61.2370   85.9692    9.9311 C.ar    1  UNL1        0.0208
     21 C          63.6519   87.9575   13.0458 C.3     1  UNL1        0.2302
     22 O          63.0781   89.2042   13.6510 O.3     1  UNL1       -0.4329
     23 C          63.9912   90.2637   14.1930 C.2     1  UNL1        0.4049
     24 O          64.3107   90.3007   15.6581 O.2     1  UNL1       -0.2262
     25 N          64.5849   91.2862   13.2699 N.am    1  UNL1       -0.2460
     26 C          64.2655   91.2492   11.8048 C.3     1  UNL1        0.0968
     27 C          64.8592   92.2717   10.8816 C.3     1  UNL1        0.0242
     28 C          65.7723   93.3311   11.4237 C.3     1  UNL1        0.0327
     29 C          66.0917   93.3681   12.8889 C.3     1  UNL1        0.0242
     30 C          65.4980   92.3456   13.8119 C.3     1  UNL1        0.0968
     31 C          66.3660   94.3536   10.5006 C.3     1  UNL1        0.1372
     32 O          67.7892   94.2177   10.0469 O.3     1  UNL1       -0.3820
     33 H          68.3824   94.3217   10.8073 H       1  UNL1        0.2104
@<TRIPOS>BOND
     1     7     8    1
     2     1     8    1
     3     1     2    1
     4     2     3    1
     5     3     4    1
     6     4     5    1
     7     5    21    1
     8    21    22    1
     9    22    23    1
    10    23    24    2
    11    23    25   am
    12    25    26    1
    13    26    27    1
    14    27    28    1
    15    28    31    1
    16    31    32    1
    17    28    29    1
    18    29    30    1
    19     5     6    1
    20     6    11    1
    21    11    12    2
    22    11    13    2
    23    11    14    1
    24    14    15   ar
    25    15    16   ar
    26    16    17   ar
    27    17    18    1
    28    17    19   ar
    29    19    20   ar
    30     8     9    1
    31     9    10    1
    32    10     8    1
    33     6     1    1
    34    20    14   ar
    35    30    25    1
    36    32    33    1
@<TRIPOS>MOLECULE
*****
 33 36 0 0 0
SMALL
GASTEIGER

@<TRIPOS>ATOM
      1 C          60.6507   87.8290    8.9089 C.3     1  UNL1        0.1092
      2 C          60.1374   89.1606    8.4472 C.3     1  UNL1        0.1598
      3 O          60.4827   90.4038    9.2123 O.3     1  UNL1       -0.3507
      4 C          61.3412   90.3152   10.4391 C.3     1  UNL1        0.1636
      5 C          61.8545   88.9836   10.9008 C.3     1  UNL1        0.1527
      6 N          61.5092   87.7405   10.1357 N.3     1  UNL1       -0.1496
      7 C          58.8141   86.4352    8.2017 C.3     1  UNL1        0.0015
      8 C          60.3054   86.5858    8.1438 C.3     1  UNL1        0.0175
      9 C          60.4783   85.3414    7.3242 C.3     1  UNL1        0.0015
     10 C          61.6773   86.1508    7.7210 C.3     1  UNL1        0.0015
     11 S          62.0225   86.4088   10.5974 S.O2    1  UNL1        0.0635
     12 O          60.8935   86.3145   11.5805 O.2     1  UNL1       -0.1528
     13 O          63.2056   86.3400    9.6780 O.2     1  UNL1       -0.1528
     14 C          62.5357   85.0771   11.0592 C.ar    1  UNL1        0.1223
     15 C          63.2439   84.1712   10.0959 C.ar    1  UNL1        0.0208
     16 C          63.7571   82.8395   10.5576 C.ar    1  UNL1        0.0128
     17 C          63.5622   82.4137   11.9826 C.ar    1  UNL1        0.0578
     18 CL         64.0754   81.0820   12.4443 Cl      1  UNL1       -0.0822
     19 C          62.8541   83.3195   12.9459 C.ar    1  UNL1        0.0128
     20 C          62.3408   84.6513   12.4842 C.ar    1  UNL1        0.0208
     21 C          62.7130   88.8951   12.1276 C.3     1  UNL1        0.2302
     22 O          62.6898   90.0010   13.1407 O.3     1  UNL1       -0.4329
     23 C          63.9769   90.5788   13.6499 C.2     1  UNL1        0.4049
     24 O          64.4590   90.2369   15.0286 O.2     1  UNL1       -0.2262
     25 N          64.7821   91.4985   12.7805 N.am    1  UNL1       -0.2460
     26 C          64.3001   91.8405   11.4019 C.3     1  UNL1        0.0968
     27 C          65.1052   92.7602   10.5324 C.3     1  UNL1        0.0242
     28 C          66.3924   93.3380   11.0417 C.3     1  UNL1        0.0327
     29 C          66.8744   92.9960   12.4204 C.3     1  UNL1        0.0242
     30 C          66.0693   92.0763   13.2898 C.3     1  UNL1        0.0968
     31 C          67.1975   94.2577   10.1723 C.3     1  UNL1        0.1372
     32 O          68.6042   93.8956    9.7981 O.3     1  UNL1       -0.3820
     33 H          69.1603   93.8953   10.5928 H       1  UNL1        0.2104
@<TRIPOS>BOND
     1     7     8    1
     2     1     8    1
     3     1     2    1
     4     2     3    1
     5     3     4    1
     6     4     5    1
     7     5    21    1
     8    21    22    1
     9    22    23    1
    10    23    24    2
    11    23    25   am
    12    25    26    1
    13    26    27    1
    14    27    28    1
    15    28    31    1
    16    31    32    1
    17    28    29    1
    18    29    30    1
    19     5     6    1
    20     6    11    1
    21    11    12    2
    22    11    13    2
    23    11    14    1
    24    14    15   ar
    25    15    16   ar
    26    16    17   ar
    27    17    18    1
    28    17    19   ar
    29    19    20   ar
    30     8     9    1
    31     9    10    1
    32    10     8    1
    33     6     1    1
    34    20    14   ar
    35    30    25    1
    36    32    33    1
@<TRIPOS>MOLECULE
*****
 33 36 0 0 0
SMALL
GASTEIGER

@<TRIPOS>ATOM
      1 C          60.6196   88.0547    9.1129 C.3     1  UNL1        0.1092
      2 C          60.1309   89.4098    8.6948 C.3     1  UNL1        0.1598
      3 O          60.5720   90.6308    9.4462 O.3     1  UNL1       -0.3507
      4 C          61.5017   90.4967   10.6156 C.3     1  UNL1        0.1636
      5 C          61.9904   89.1416   11.0337 C.3     1  UNL1        0.1527
      6 N          61.5493   87.9206   10.2824 N.3     1  UNL1       -0.1496
      7 C          58.6972   86.7074    8.5607 C.3     1  UNL1        0.0015
      8 C          60.1785   86.8336    8.3616 C.3     1  UNL1        0.0175
      9 C          60.2478   85.6036    7.5057 C.3     1  UNL1        0.0015
     10 C          61.4947   86.3840    7.7998 C.3     1  UNL1        0.0015
     11 S          62.0380   86.5654   10.7005 S.O2    1  UNL1        0.0635
     12 O          60.9283   86.4754   11.7056 O.2     1  UNL1       -0.1528
     13 O          63.1990   86.4896    9.7538 O.2     1  UNL1       -0.1528
     14 C          62.5266   85.2103   11.1186 C.ar    1  UNL1        0.1223
     15 C          63.1763   84.3046   10.1147 C.ar    1  UNL1        0.0208
     16 C          63.6649   82.9495   10.5328 C.ar    1  UNL1        0.0128
     17 C          63.5038   82.4999   11.9548 C.ar    1  UNL1        0.0578
     18 CL         63.9924   81.1448   12.3729 Cl      1  UNL1       -0.0822
     19 C          62.8542   83.4055   12.9586 C.ar    1  UNL1        0.0128
     20 C          62.3655   84.7607   12.5405 C.ar    1  UNL1        0.0208
     21 C          62.9201   89.0075   12.2032 C.3     1  UNL1        0.2302
     22 O          63.8808   90.1127   12.5282 O.3     1  UNL1       -0.4329
     23 C          63.9810   90.6306   13.9323 C.2     1  UNL1        0.4049
     24 O          62.8379   90.4414   14.8849 O.2     1  UNL1       -0.2262
     25 N          65.2244   91.3378   14.3839 N.am    1  UNL1       -0.2460
     26 C          66.3676   91.5270   13.4314 C.3     1  UNL1        0.0968
     27 C          67.6110   92.2342   13.8830 C.3     1  UNL1        0.0242
     28 C          67.7112   92.7521   15.2871 C.3     1  UNL1        0.0327
     29 C          66.5680   92.5628   16.2397 C.3     1  UNL1        0.0242
     30 C          65.3247   91.8557   15.7881 C.3     1  UNL1        0.0968
     31 C          68.9546   93.4592   15.7388 C.3     1  UNL1        0.1372
     32 O          68.8727   94.8665   16.2515 O.3     1  UNL1       -0.3820
     33 H          68.6021   95.4576   15.5317 H       1  UNL1        0.2104
@<TRIPOS>BOND
     1     7     8    1
     2     1     8    1
     3     1     2    1
     4     2     3    1
     5     3     4    1
     6     4     5    1
     7     5    21    1
     8    21    22    1
     9    22    23    1
    10    23    24    2
    11    23    25   am
    12    25    26    1
    13    26    27    1
    14    27    28    1
    15    28    31    1
    16    31    32    1
    17    28    29    1
    18    29    30    1
    19     5     6    1
    20     6    11    1
    21    11    12    2
    22    11    13    2
    23    11    14    1
    24    14    15   ar
    25    15    16   ar
    26    16    17   ar
    27    17    18    1
    28    17    19   ar
    29    19    20   ar
    30     8     9    1
    31     9    10    1
    32    10     8    1
    33     6     1    1
    34    20    14   ar
    35    30    25    1
    36    32    33    1
@<TRIPOS>MOLECULE
*****
 33 36 0 0 0
SMALL
GASTEIGER

@<TRIPOS>ATOM
      1 C          63.6518   82.3373   12.3140 C.3     1  UNL1        0.1092
      2 C          64.0355   81.1025   13.0742 C.3     1  UNL1        0.1598
      3 O          63.9203   81.0764   14.5696 O.3     1  UNL1       -0.3507
      4 C          63.4214   82.2850   15.3046 C.3     1  UNL1        0.1636
      5 C          63.0377   83.5198   14.5444 C.3     1  UNL1        0.1527
      6 N          63.1529   83.5459   13.0490 N.3     1  UNL1       -0.1496
      7 C          62.8771   81.2772   10.2911 C.3     1  UNL1        0.0015
      8 C          63.7669   82.3635   10.8186 C.3     1  UNL1        0.0175
      9 C          64.2055   82.7794    9.4457 C.3     1  UNL1        0.0015
     10 C          64.7380   83.4945   10.6520 C.3     1  UNL1        0.0015
     11 S          62.7691   84.7807   12.2887 S.O2    1  UNL1        0.0635
     12 O          63.8582   85.5454   12.9809 O.2     1  UNL1       -0.1528
     13 O          61.6414   84.1723   11.5090 O.2     1  UNL1       -0.1528
     14 C          62.3855   86.0155   11.5284 C.ar    1  UNL1        0.1223
     15 C          61.5748   85.9008   10.2715 C.ar    1  UNL1        0.0208
     16 C          61.1911   87.1356    9.5112 C.ar    1  UNL1        0.0128
     17 C          61.6181   88.4851   10.0078 C.ar    1  UNL1        0.0578
     18 CL         61.2344   89.7199    9.2475 Cl      1  UNL1       -0.0822
     19 C          62.4287   88.5998   11.2646 C.ar    1  UNL1        0.0128
     20 C          62.8124   87.3650   12.0250 C.ar    1  UNL1        0.0208
     21 C          62.5388   84.7284   15.2794 C.3     1  UNL1        0.2302
     22 O          63.3299   85.2900   16.4234 O.3     1  UNL1       -0.4329
     23 C          62.9485   86.6116   17.0217 C.2     1  UNL1        0.4049
     24 O          62.1096   86.6582   18.2643 O.2     1  UNL1       -0.2262
     25 N          63.4061   87.8866   16.3774 N.am    1  UNL1       -0.2460
     26 C          64.2450   87.8400   15.1348 C.3     1  UNL1        0.0968
     27 C          64.7026   89.1150   14.4905 C.3     1  UNL1        0.0242
     28 C          64.3213   90.4365   15.0888 C.3     1  UNL1        0.0327
     29 C          63.4823   90.4831   16.3315 C.3     1  UNL1        0.0242
     30 C          63.0248   89.2082   16.9757 C.3     1  UNL1        0.0968
     31 C          64.7788   91.7115   14.4446 C.3     1  UNL1        0.1372
     32 O          65.4273   92.7800   15.2737 O.3     1  UNL1       -0.3820
     33 H          64.7811   93.1385   15.9021 H       1  UNL1        0.2104
@<TRIPOS>BOND
     1     7     8    1
     2     1     8    1
     3     1     2    1
     4     2     3    1
     5     3     4    1
     6     4     5    1
     7     5    21    1
     8    21    22    1
     9    22    23    1
    10    23    24    2
    11    23    25   am
    12    25    26    1
    13    26    27    1
    14    27    28    1
    15    28    31    1
    16    31    32    1
    17    28    29    1
    18    29    30    1
    19     5     6    1
    20     6    11    1
    21    11    12    2
    22    11    13    2
    23    11    14    1
    24    14    15   ar
    25    15    16   ar
    26    16    17   ar
    27    17    18    1
    28    17    19   ar
    29    19    20   ar
    30     8     9    1
    31     9    10    1
    32    10     8    1
    33     6     1    1
    34    20    14   ar
    35    30    25    1
    36    32    33    1
@<TRIPOS>MOLECULE
*****
 33 36 0 0 0
SMALL
GASTEIGER

@<TRIPOS>ATOM
      1 C          63.7822   84.6784   12.7783 C.3     1  UNL1        0.1092
      2 C          64.6915   84.2557   13.8939 C.3     1  UNL1        0.1598
      3 O          65.1087   85.2482   14.9382 O.3     1  UNL1       -0.3507
      4 C          64.6166   86.6634   14.8671 C.3     1  UNL1        0.1636
      5 C          63.7073   87.0861   13.7516 C.3     1  UNL1        0.1527
      6 N          63.2901   86.0936   12.7072 N.3     1  UNL1       -0.1496
      7 C          62.3292   82.7996   12.3599 C.3     1  UNL1        0.0015
      8 C          63.3649   83.6858   11.7338 C.3     1  UNL1        0.0175
      9 C          63.2997   82.9663   10.4192 C.3     1  UNL1        0.0015
     10 C          64.2335   84.1273   10.5934 C.3     1  UNL1        0.0015
     11 S          62.3808   86.5162   11.5916 S.O2    1  UNL1        0.0635
     12 O          61.2406   85.7959   12.2481 O.2     1  UNL1       -0.1528
     13 O          63.4016   87.2827   10.8040 O.2     1  UNL1       -0.1528
     14 C          61.4714   86.9388   10.4760 C.ar    1  UNL1        0.1223
     15 C          61.0084   85.9331    9.4639 C.ar    1  UNL1        0.0208
     16 C          60.0991   86.3558    8.3484 C.ar    1  UNL1        0.0128
     17 C          59.6527   87.7840    8.2449 C.ar    1  UNL1        0.0578
     18 CL         58.7434   88.2067    7.1294 Cl      1  UNL1       -0.0822
     19 C          60.1156   88.7897    9.2569 C.ar    1  UNL1        0.0128
     20 C          61.0250   88.3671   10.3726 C.ar    1  UNL1        0.0208
     21 C          63.2152   88.5013   13.6804 C.3     1  UNL1        0.2302
     22 O          64.0029   89.5323   12.9278 O.3     1  UNL1       -0.4329
     23 C          64.7393   90.6053   13.6736 C.2     1  UNL1        0.4049
     24 O          65.0016   90.4527   15.1426 O.2     1  UNL1       -0.2262
     25 N          65.2134   91.8310   12.9505 N.am    1  UNL1       -0.2460
     26 C          64.9511   91.9836   11.4815 C.3     1  UNL1        0.0968
     27 C          65.4252   93.2094   10.7583 C.3     1  UNL1        0.0242
     28 C          66.1616   94.2824   11.5042 C.3     1  UNL1        0.0327
     29 C          66.4239   94.1298   12.9732 C.3     1  UNL1        0.0242
     30 C          65.9498   92.9041   13.6963 C.3     1  UNL1        0.0968
     31 C          66.6357   95.5081   10.7811 C.3     1  UNL1        0.1372
     32 O          65.9730   96.8301   11.0318 O.3     1  UNL1       -0.3820
     33 H          65.0571   96.7982   10.7139 H       1  UNL1        0.2104
@<TRIPOS>BOND
     1     7     8    1
     2     1     8    1
     3     1     2    1
     4     2     3    1
     5     3     4    1
     6     4     5    1
     7     5    21    1
     8    21    22    1
     9    22    23    1
    10    23    24    2
    11    23    25   am
    12    25    26    1
    13    26    27    1
    14    27    28    1
    15    28    31    1
    16    31    32    1
    17    28    29    1
    18    29    30    1
    19     5     6    1
    20     6    11    1
    21    11    12    2
    22    11    13    2
    23    11    14    1
    24    14    15   ar
    25    15    16   ar
    26    16    17   ar
    27    17    18    1
    28    17    19   ar
    29    19    20   ar
    30     8     9    1
    31     9    10    1
    32    10     8    1
    33     6     1    1
    34    20    14   ar
    35    30    25    1
    36    32    33    1
@<TRIPOS>MOLECULE
*****
 33 36 0 0 0
SMALL
GASTEIGER

@<TRIPOS>ATOM
      1 C          60.5037   87.9891    8.9253 C.3     1  UNL1        0.1092
      2 C          59.8721   89.2774    8.4880 C.3     1  UNL1        0.1598
      3 O          60.0798   90.5257    9.2934 O.3     1  UNL1       -0.3507
      4 C          60.9189   90.4856   10.5360 C.3     1  UNL1        0.1636
      5 C          61.5505   89.1973   10.9733 C.3     1  UNL1        0.1527
      6 N          61.3428   87.9490   10.1680 N.3     1  UNL1       -0.1496
      7 C          61.6548   86.2412    7.7271 C.3     1  UNL1        0.0015
      8 C          60.2961   86.7407    8.1199 C.3     1  UNL1        0.0175
      9 C          59.5933   85.6157    7.4194 C.3     1  UNL1        0.0015
     10 C          58.7983   86.6625    8.1422 C.3     1  UNL1        0.0015
     11 S          61.9744   86.6606   10.6052 S.O2    1  UNL1        0.0635
     12 O          63.1085   86.8929    9.6515 O.2     1  UNL1       -0.1528
     13 O          60.9257   86.2730   11.6052 O.2     1  UNL1       -0.1528
     14 C          62.6060   85.3722   11.0425 C.ar    1  UNL1        0.1223
     15 C          62.5597   84.9662   12.4858 C.ar    1  UNL1        0.0208
     16 C          63.1913   83.6778   12.9230 C.ar    1  UNL1        0.0128
     17 C          63.8691   82.7955   11.9170 C.ar    1  UNL1        0.0578
     18 CL         64.5007   81.5071   12.3543 Cl      1  UNL1       -0.0822
     19 C          63.9154   83.2015   10.4738 C.ar    1  UNL1        0.0128
     20 C          63.2838   84.4899   10.0365 C.ar    1  UNL1        0.0208
     21 C          62.3896   89.1572   12.2160 C.3     1  UNL1        0.2302
     22 O          62.8183   90.4357   12.8730 O.3     1  UNL1       -0.4329
     23 C          63.9803   91.2086   12.3231 C.2     1  UNL1        0.4049
     24 O          64.1112   91.4143   10.8431 O.2     1  UNL1       -0.2262
     25 N          65.0114   91.7758   13.2533 N.am    1  UNL1       -0.2460
     26 C          64.8805   91.5701   14.7333 C.3     1  UNL1        0.0968
     27 C          65.9116   92.1373   15.6635 C.3     1  UNL1        0.0242
     28 C          67.0736   92.9102   15.1136 C.3     1  UNL1        0.0327
     29 C          67.2044   93.1160   13.6335 C.3     1  UNL1        0.0242
     30 C          66.1734   92.5488   12.7034 C.3     1  UNL1        0.0968
     31 C          68.1046   93.4775   16.0437 C.3     1  UNL1        0.1372
     32 O          69.3782   92.7272   16.2989 O.3     1  UNL1       -0.3820
     33 H          69.1783   91.8995   16.7634 H       1  UNL1        0.2104
@<TRIPOS>BOND
     1     7     8    1
     2     1     8    1
     3     1     2    1
     4     2     3    1
     5     3     4    1
     6     4     5    1
     7     5    21    1
     8    21    22    1
     9    22    23    1
    10    23    24    2
    11    23    25   am
    12    25    26    1
    13    26    27    1
    14    27    28    1
    15    28    31    1
    16    31    32    1
    17    28    29    1
    18    29    30    1
    19     5     6    1
    20     6    11    1
    21    11    12    2
    22    11    13    2
    23    11    14    1
    24    14    15   ar
    25    15    16   ar
    26    16    17   ar
    27    17    18    1
    28    17    19   ar
    29    19    20   ar
    30     8     9    1
    31     9    10    1
    32    10     8    1
    33     6     1    1
    34    20    14   ar
    35    30    25    1
    36    32    33    1
