@<TRIPOS>MOLECULE
*****
 33 36 0 0 0
SMALL
GASTEIGER

@<TRIPOS>ATOM
      1 C          61.8414   89.8381   10.6039 C.ar    1  UNL1        0.0405
      2 C          62.3071   90.9151    9.6695 C.ar    1  UNL1        0.0040
      3 C          63.4740   91.7800   10.0440 C.ar    1  UNL1        0.0387
      4 C          64.1752   91.5679   11.3530 C.ar    1  UNL1        0.1655
      5 N          65.3449   92.2592   11.9887 N.ar    1  UNL1       -0.2061
      6 C          65.6020   91.6095   13.3159 C.ar    1  UNL1        0.1829
      7 N          64.5912   90.5166   13.5006 N.ar    1  UNL1       -0.1442
      8 N          63.7094   90.4910   12.2875 N.ar    1  UNL1       -0.2095
      9 C          62.5425   89.6261   11.9129 C.ar    1  UNL1        0.1014
     10 C          66.6805   91.9864   14.2880 C.ar    1  UNL1        0.0296
     11 C          66.3272   92.3264   15.7056 C.ar    1  UNL1       -0.0191
     12 C          64.8953   92.2896   16.1511 C.3     1  UNL1        0.0311
     13 C          67.4056   92.7033   16.6776 C.ar    1  UNL1       -0.0042
     14 C          68.8374   92.7402   16.2320 C.ar    1  UNL1       -0.0006
     15 C          69.1907   92.4002   14.8144 C.ar    1  UNL1       -0.0042
     16 C          68.1123   92.0233   13.8424 C.ar    1  UNL1       -0.0191
     17 C          68.4657   91.6832   12.4248 C.3     1  UNL1        0.0311
     18 C          60.6745   88.9732   10.2294 C.3     1  UNL1        0.2335
     19 O          60.8743   87.7958    9.3218 O.3     1  UNL1       -0.4706
     20 C          63.0319   84.1415   10.8187 C.ar    1  UNL1       -0.0099
     21 C          62.1941   84.9558   11.7594 C.ar    1  UNL1       -0.0002
     22 C          61.4749   86.1739   11.2605 C.ar    1  UNL1        0.0366
     23 C          61.5935   86.5777    9.8208 C.ar    1  UNL1        0.1390
     24 C          62.4313   85.7634    8.8800 C.ar    1  UNL1        0.0366
     25 C          63.1505   84.5453    9.3790 C.ar    1  UNL1       -0.0002
     26 C          63.7511   82.9233   11.3177 C.3     1  UNL1        0.0917
     27 C          62.8043   78.8819    9.5798 C.3     1  UNL1        0.0900
     28 C          63.1199   80.2290   10.1591 C.1     1  UNL1       -0.0897
     29 C          63.4355   81.5762   10.7384 C.1     1  UNL1       -0.0872
     30 C          64.7858   83.0524   12.3959 C.3     1  UNL1        0.0591
     31 C          64.3644   83.1446   13.8325 C.2     1  UNL1        0.0517
     32 O          63.6267   82.0060   14.4723 O.co2   1  UNL1       -0.5491
     33 O          64.6808   84.3754   14.6294 O.co2   1  UNL1       -0.5491
@<TRIPOS>UNITY_ATOM_ATTR
32 1
charge -1
@<TRIPOS>BOND
     1    27    28    1
     2    28    29    3
     3    26    29    1
     4    26    30    1
     5    30    31    1
     6    31    32   ar
     7    31    33   ar
     8    26    20    1
     9    20    21   ar
    10    21    22   ar
    11    22    23   ar
    12    23    19    1
    13    19    18    1
    14    18     1    1
    15     1     2   ar
    16     2     3   ar
    17     3     4   ar
    18     4     5   ar
    19     5     6   ar
    20     6    10    1
    21    10    11   ar
    22    11    12    1
    23    11    13   ar
    24    13    14   ar
    25    14    15   ar
    26    15    16   ar
    27    16    17    1
    28     6     7   ar
    29     7     8   ar
    30     8     9   ar
    31    23    24   ar
    32    24    25   ar
    33    25    20   ar
    34     9     1   ar
    35     8     4   ar
    36    16    10   ar
@<TRIPOS>MOLECULE
*****
 33 36 0 0 0
SMALL
GASTEIGER

@<TRIPOS>ATOM
      1 C          61.8729   89.8508   10.5664 C.ar    1  UNL1        0.0405
      2 C          62.3303   90.9501    9.6541 C.ar    1  UNL1        0.0040
      3 C          63.4881   91.8186   10.0481 C.ar    1  UNL1        0.0387
      4 C          64.1884   91.5879   11.3543 C.ar    1  UNL1        0.1655
      5 N          65.3500   92.2778   12.0060 N.ar    1  UNL1       -0.2061
      6 C          65.6105   91.6049   13.3210 C.ar    1  UNL1        0.1829
      7 N          64.6099   90.4991   13.4821 N.ar    1  UNL1       -0.1442
      8 N          63.7310   90.4885   12.2666 N.ar    1  UNL1       -0.2095
      9 C          62.5733   89.6200   11.8726 C.ar    1  UNL1        0.1014
     10 C          66.6833   91.9731   14.3027 C.ar    1  UNL1        0.0296
     11 C          68.1184   92.0078   13.8674 C.ar    1  UNL1       -0.0191
     12 C          68.4806   91.6744   12.4505 C.3     1  UNL1        0.0311
     13 C          69.1911   92.3760   14.8490 C.ar    1  UNL1       -0.0042
     14 C          68.8289   92.7095   16.2659 C.ar    1  UNL1       -0.0006
     15 C          67.3938   92.6747   16.7011 C.ar    1  UNL1       -0.0042
     16 C          66.3211   92.3066   15.7195 C.ar    1  UNL1       -0.0191
     17 C          64.8860   92.2718   16.1548 C.3     1  UNL1        0.0311
     18 C          60.7152   88.9822   10.1724 C.3     1  UNL1        0.2335
     19 O          60.9352   87.8010    9.2744 O.3     1  UNL1       -0.4706
     20 C          63.0059   84.1303   10.8517 C.ar    1  UNL1       -0.0099
     21 C          63.1603   84.5177    9.4108 C.ar    1  UNL1       -0.0002
     22 C          62.4701   85.7413    8.8851 C.ar    1  UNL1        0.0366
     23 C          61.6255   86.5774    9.8002 C.ar    1  UNL1        0.1390
     24 C          61.4711   86.1900   11.2410 C.ar    1  UNL1        0.0366
     25 C          62.1613   84.9665   11.7668 C.ar    1  UNL1       -0.0002
     26 C          63.6962   82.9067   11.3775 C.3     1  UNL1        0.0917
     27 C          62.8098   78.8769    9.5818 C.3     1  UNL1        0.0900
     28 C          63.1053   80.2202   10.1803 C.1     1  UNL1       -0.0897
     29 C          63.4008   81.5634   10.7789 C.1     1  UNL1       -0.0872
     30 C          64.6820   83.0265   12.5017 C.3     1  UNL1        0.0591
     31 C          64.1997   83.0589   13.9217 C.2     1  UNL1        0.0517
     32 O          63.5087   81.8629   14.5066 O.co2   1  UNL1       -0.5491
     33 O          64.4084   84.2874   14.7568 O.co2   1  UNL1       -0.5491
@<TRIPOS>UNITY_ATOM_ATTR
32 1
charge -1
@<TRIPOS>BOND
     1    27    28    1
     2    28    29    3
     3    26    29    1
     4    26    30    1
     5    30    31    1
     6    31    32   ar
     7    31    33   ar
     8    26    20    1
     9    20    21   ar
    10    21    22   ar
    11    22    23   ar
    12    23    19    1
    13    19    18    1
    14    18     1    1
    15     1     2   ar
    16     2     3   ar
    17     3     4   ar
    18     4     5   ar
    19     5     6   ar
    20     6    10    1
    21    10    11   ar
    22    11    12    1
    23    11    13   ar
    24    13    14   ar
    25    14    15   ar
    26    15    16   ar
    27    16    17    1
    28     6     7   ar
    29     7     8   ar
    30     8     9   ar
    31    23    24   ar
    32    24    25   ar
    33    25    20   ar
    34     9     1   ar
    35     8     4   ar
    36    16    10   ar
@<TRIPOS>MOLECULE
*****
 33 36 0 0 0
SMALL
GASTEIGER

@<TRIPOS>ATOM
      1 C          63.8825   88.6318   13.6765 C.ar    1  UNL1        0.0405
      2 C          64.5140   88.0882   14.9237 C.ar    1  UNL1        0.0040
      3 C          64.6147   86.6057   15.1285 C.ar    1  UNL1        0.0387
      4 C          64.0838   85.6668   14.0861 C.ar    1  UNL1        0.1655
      5 N          64.0428   84.1691   14.0117 N.ar    1  UNL1       -0.2061
      6 C          63.3858   83.7872   12.7184 C.ar    1  UNL1        0.1829
      7 N          63.0209   85.0487   11.9936 N.ar    1  UNL1       -0.1442
      8 N          63.4522   86.2104   12.8389 N.ar    1  UNL1       -0.2095
      9 C          63.3516   87.6929   12.6341 C.ar    1  UNL1        0.1014
     10 C          63.1374   82.3891   12.2348 C.ar    1  UNL1        0.0296
     11 C          62.4718   81.3912   13.1354 C.ar    1  UNL1       -0.0191
     12 C          62.0545   81.7913   14.5196 C.3     1  UNL1        0.0311
     13 C          62.2234   79.9932   12.6518 C.ar    1  UNL1       -0.0042
     14 C          62.6406   79.5931   11.2677 C.ar    1  UNL1       -0.0006
     15 C          63.3063   80.5911   10.3672 C.ar    1  UNL1       -0.0042
     16 C          63.5547   81.9891   10.8507 C.ar    1  UNL1       -0.0191
     17 C          64.2204   82.9870    9.9502 C.3     1  UNL1        0.0311
     18 C          63.7817   90.1144   13.4716 C.3     1  UNL1        0.2335
     19 O          62.4882   90.7225   13.0168 O.3     1  UNL1       -0.4706
     20 C          60.3927   89.0963    9.3817 C.ar    1  UNL1       -0.0099
     21 C          61.8084   89.5809    9.2772 C.ar    1  UNL1       -0.0002
     22 C          62.5069   90.1230   10.4889 C.ar    1  UNL1        0.0366
     23 C          61.7897   90.1804   11.8051 C.ar    1  UNL1        0.1390
     24 C          60.3740   89.6958   11.9095 C.ar    1  UNL1        0.0366
     25 C          59.6755   89.1538   10.6979 C.ar    1  UNL1       -0.0002
     26 C          59.6941   88.5542    8.1699 C.3     1  UNL1        0.0917
     27 C          58.6672   91.2941    4.7511 C.3     1  UNL1        0.0900
     28 C          59.0095   90.3808    5.8907 C.1     1  UNL1       -0.0897
     29 C          59.3518   89.4675    7.0303 C.1     1  UNL1       -0.0872
     30 C          59.3380   87.0990    8.0978 C.3     1  UNL1        0.0591
     31 C          60.4090   86.0755    7.8625 C.2     1  UNL1        0.0517
     32 O          60.2862   85.1103    6.7209 O.co2   1  UNL1       -0.5491
     33 O          61.6029   86.0173    8.7688 O.co2   1  UNL1       -0.5491
@<TRIPOS>UNITY_ATOM_ATTR
32 1
charge -1
@<TRIPOS>BOND
     1    27    28    1
     2    28    29    3
     3    26    29    1
     4    26    30    1
     5    30    31    1
     6    31    32   ar
     7    31    33   ar
     8    26    20    1
     9    20    21   ar
    10    21    22   ar
    11    22    23   ar
    12    23    19    1
    13    19    18    1
    14    18     1    1
    15     1     2   ar
    16     2     3   ar
    17     3     4   ar
    18     4     5   ar
    19     5     6   ar
    20     6    10    1
    21    10    11   ar
    22    11    12    1
    23    11    13   ar
    24    13    14   ar
    25    14    15   ar
    26    15    16   ar
    27    16    17    1
    28     6     7   ar
    29     7     8   ar
    30     8     9   ar
    31    23    24   ar
    32    24    25   ar
    33    25    20   ar
    34     9     1   ar
    35     8     4   ar
    36    16    10   ar
@<TRIPOS>MOLECULE
*****
 33 36 0 0 0
SMALL
GASTEIGER

@<TRIPOS>ATOM
      1 C          63.4811   87.0293   16.5546 C.ar    1  UNL1        0.0405
      2 C          62.7399   88.0751   17.3336 C.ar    1  UNL1        0.0040
      3 C          62.7523   89.5026   16.8730 C.ar    1  UNL1        0.0387
      4 C          63.5059   89.8842   15.6335 C.ar    1  UNL1        0.1655
      5 N          63.6975   91.2009   14.9407 N.ar    1  UNL1       -0.2061
      6 C          64.5571   90.9687   13.7336 C.ar    1  UNL1        0.1829
      7 N          64.8968   89.5086   13.6803 N.ar    1  UNL1       -0.1442
      8 N          64.2472   88.8384   14.8545 N.ar    1  UNL1       -0.2095
      9 C          64.2348   87.4109   15.3151 C.ar    1  UNL1        0.1014
     10 C          64.9993   92.0132   12.7520 C.ar    1  UNL1        0.0296
     11 C          64.4472   92.0134   11.3573 C.ar    1  UNL1       -0.0191
     12 C          63.4528   90.9690   10.9442 C.3     1  UNL1        0.0311
     13 C          64.8895   93.0578   10.3757 C.ar    1  UNL1       -0.0042
     14 C          65.8838   94.1021   10.7889 C.ar    1  UNL1       -0.0006
     15 C          66.4359   94.1019   12.1835 C.ar    1  UNL1       -0.0042
     16 C          65.9937   93.0575   13.1651 C.ar    1  UNL1       -0.0191
     17 C          66.5458   93.0574   14.5598 C.3     1  UNL1        0.0311
     18 C          63.4688   85.6018   17.0152 C.3     1  UNL1        0.2335
     19 O          62.5211   84.6206   16.3913 O.3     1  UNL1       -0.4706
     20 C          63.2636   83.1198   12.2144 C.ar    1  UNL1       -0.0099
     21 C          62.3783   82.3437   13.1439 C.ar    1  UNL1       -0.0002
     22 C          62.1308   82.8440   14.5362 C.ar    1  UNL1        0.0366
     23 C          62.7686   84.1203   14.9989 C.ar    1  UNL1        0.1390
     24 C          63.6539   84.8964   14.0694 C.ar    1  UNL1        0.0366
     25 C          63.9014   84.3961   12.6772 C.ar    1  UNL1       -0.0002
     26 C          63.5110   82.6195   10.8221 C.3     1  UNL1        0.0917
     27 C          62.7040   78.3115    9.8027 C.3     1  UNL1        0.0900
     28 C          62.9730   79.7475   10.1425 C.1     1  UNL1       -0.0897
     29 C          63.2420   81.1835   10.4823 C.1     1  UNL1       -0.0872
     30 C          64.0275   83.5552    9.7696 C.3     1  UNL1        0.0591
     31 C          63.1099   84.5675    9.1505 C.2     1  UNL1        0.0517
     32 O          62.3096   85.4876   10.0238 O.co2   1  UNL1       -0.5491
     33 O          62.9927   84.6596    7.6578 O.co2   1  UNL1       -0.5491
@<TRIPOS>UNITY_ATOM_ATTR
32 1
charge -1
@<TRIPOS>BOND
     1    27    28    1
     2    28    29    3
     3    26    29    1
     4    26    30    1
     5    30    31    1
     6    31    32   ar
     7    31    33   ar
     8    26    20    1
     9    20    21   ar
    10    21    22   ar
    11    22    23   ar
    12    23    19    1
    13    19    18    1
    14    18     1    1
    15     1     2   ar
    16     2     3   ar
    17     3     4   ar
    18     4     5   ar
    19     5     6   ar
    20     6    10    1
    21    10    11   ar
    22    11    12    1
    23    11    13   ar
    24    13    14   ar
    25    14    15   ar
    26    15    16   ar
    27    16    17    1
    28     6     7   ar
    29     7     8   ar
    30     8     9   ar
    31    23    24   ar
    32    24    25   ar
    33    25    20   ar
    34     9     1   ar
    35     8     4   ar
    36    16    10   ar
@<TRIPOS>MOLECULE
*****
 33 36 0 0 0
SMALL
GASTEIGER

@<TRIPOS>ATOM
      1 C          63.4249   83.4714   13.4512 C.ar    1  UNL1        0.0405
      2 C          64.2520   82.9927   12.2950 C.ar    1  UNL1        0.0040
      3 C          64.0487   83.5843   10.9317 C.ar    1  UNL1        0.0387
      4 C          63.0183   84.6545   10.7245 C.ar    1  UNL1        0.1655
      5 N          62.5966   85.4191    9.5048 N.ar    1  UNL1       -0.2061
      6 C          61.5088   86.3703    9.9072 C.ar    1  UNL1        0.1829
      7 N          61.2583   86.1936   11.3755 N.ar    1  UNL1       -0.1442
      8 N          62.1912   85.1332   11.8807 N.ar    1  UNL1       -0.2095
      9 C          62.3945   84.5416   13.2440 C.ar    1  UNL1        0.1014
     10 C          60.7965   87.3297    9.0004 C.ar    1  UNL1        0.0296
     11 C          60.7648   88.7923    9.3322 C.ar    1  UNL1       -0.0191
     12 C          61.4454   89.2953   10.5707 C.3     1  UNL1        0.0311
     13 C          60.0526   89.7517    8.4255 C.ar    1  UNL1       -0.0042
     14 C          59.3721   89.2487    7.1871 C.ar    1  UNL1       -0.0006
     15 C          59.4038   87.7862    6.8553 C.ar    1  UNL1       -0.0042
     16 C          60.1160   86.8267    7.7620 C.ar    1  UNL1       -0.0191
     17 C          60.1478   85.3642    7.4302 C.3     1  UNL1        0.0311
     18 C          63.6281   82.8798   14.8146 C.3     1  UNL1        0.2335
     19 O          64.0156   83.7615   15.9645 O.3     1  UNL1       -0.4706
     20 C          63.8315   88.2367   15.5302 C.ar    1  UNL1       -0.0099
     21 C          64.6160   87.4195   14.5471 C.ar    1  UNL1       -0.0002
     22 C          64.6774   85.9278   14.6919 C.ar    1  UNL1        0.0366
     23 C          63.9542   85.2533   15.8197 C.ar    1  UNL1        0.1390
     24 C          63.1697   86.0706   16.8029 C.ar    1  UNL1        0.0366
     25 C          63.1083   87.5623   16.6581 C.ar    1  UNL1       -0.0002
     26 C          63.7701   89.7285   15.3854 C.3     1  UNL1        0.0917
     27 C          64.1391   91.6110   11.3148 C.3     1  UNL1        0.0900
     28 C          64.0161   90.9835   12.6717 C.1     1  UNL1       -0.0897
     29 C          63.8931   90.3560   14.0286 C.1     1  UNL1       -0.0872
     30 C          63.5858   90.5927   16.5975 C.3     1  UNL1        0.0591
     31 C          64.0339   92.0240   16.5732 C.2     1  UNL1        0.0517
     32 O          63.1089   93.1076   17.0424 O.co2   1  UNL1       -0.5491
     33 O          65.4072   92.3717   16.0798 O.co2   1  UNL1       -0.5491
@<TRIPOS>UNITY_ATOM_ATTR
32 1
charge -1
@<TRIPOS>BOND
     1    27    28    1
     2    28    29    3
     3    26    29    1
     4    26    30    1
     5    30    31    1
     6    31    32   ar
     7    31    33   ar
     8    26    20    1
     9    20    21   ar
    10    21    22   ar
    11    22    23   ar
    12    23    19    1
    13    19    18    1
    14    18     1    1
    15     1     2   ar
    16     2     3   ar
    17     3     4   ar
    18     4     5   ar
    19     5     6   ar
    20     6    10    1
    21    10    11   ar
    22    11    12    1
    23    11    13   ar
    24    13    14   ar
    25    14    15   ar
    26    15    16   ar
    27    16    17    1
    28     6     7   ar
    29     7     8   ar
    30     8     9   ar
    31    23    24   ar
    32    24    25   ar
    33    25    20   ar
    34     9     1   ar
    35     8     4   ar
    36    16    10   ar
@<TRIPOS>MOLECULE
*****
 33 36 0 0 0
SMALL
GASTEIGER

@<TRIPOS>ATOM
      1 C          60.5060   89.2377    9.2280 C.ar    1  UNL1        0.0405
      2 C          59.6078   89.6262   10.3648 C.ar    1  UNL1        0.0040
      3 C          60.1827   90.2849   11.5836 C.ar    1  UNL1        0.0387
      4 C          61.6559   90.5551   11.6656 C.ar    1  UNL1        0.1655
      5 N          62.5029   91.1853   12.7313 N.ar    1  UNL1       -0.2061
      6 C          63.9246   91.1863   12.2531 C.ar    1  UNL1        0.1829
      7 N          63.9562   90.5567   10.8919 N.ar    1  UNL1       -0.1442
      8 N          62.5541   90.1667   10.5289 N.ar    1  UNL1       -0.2095
      9 C          61.9792   89.5080    9.3101 C.ar    1  UNL1        0.1014
     10 C          65.1071   91.7226   13.0041 C.ar    1  UNL1        0.0296
     11 C          65.5522   91.0603   14.2743 C.ar    1  UNL1       -0.0191
     12 C          64.8147   89.8617   14.7933 C.3     1  UNL1        0.0311
     13 C          66.7347   91.5966   15.0253 C.ar    1  UNL1       -0.0042
     14 C          67.4721   92.7952   14.5062 C.ar    1  UNL1       -0.0006
     15 C          67.0270   93.4576   13.2361 C.ar    1  UNL1       -0.0042
     16 C          65.8445   92.9213   12.4850 C.ar    1  UNL1       -0.0191
     17 C          65.3995   93.5836   11.2149 C.3     1  UNL1        0.0311
     18 C          59.9311   88.5789    8.0092 C.3     1  UNL1        0.2335
     19 O          60.2535   87.1451    7.7090 O.3     1  UNL1       -0.4706
     20 C          62.7571   84.7527   10.5827 C.ar    1  UNL1       -0.0099
     21 C          63.0951   84.7618    9.1214 C.ar    1  UNL1       -0.0002
     22 C          62.2606   85.5593    8.1635 C.ar    1  UNL1        0.0366
     23 C          61.0881   86.3476    8.6669 C.ar    1  UNL1        0.1390
     24 C          60.7500   86.3385   10.1283 C.ar    1  UNL1        0.0366
     25 C          61.5845   85.5411   11.0862 C.ar    1  UNL1       -0.0002
     26 C          63.5916   83.9552   11.5407 C.3     1  UNL1        0.0917
     27 C          64.2976   85.4774   15.7161 C.3     1  UNL1        0.0900
     28 C          64.0623   84.9700   14.3243 C.1     1  UNL1       -0.0897
     29 C          63.8270   84.4626   12.9325 C.1     1  UNL1       -0.0872
     30 C          64.1908   82.6504   11.1068 C.3     1  UNL1        0.0591
     31 C          63.4118   81.3782   11.2640 C.2     1  UNL1        0.0517
     32 O          63.0245   80.9002   12.6321 O.co2   1  UNL1       -0.5491
     33 O          63.0200   80.5841   10.0532 O.co2   1  UNL1       -0.5491
@<TRIPOS>UNITY_ATOM_ATTR
32 1
charge -1
@<TRIPOS>BOND
     1    27    28    1
     2    28    29    3
     3    26    29    1
     4    26    30    1
     5    30    31    1
     6    31    32   ar
     7    31    33   ar
     8    26    20    1
     9    20    21   ar
    10    21    22   ar
    11    22    23   ar
    12    23    19    1
    13    19    18    1
    14    18     1    1
    15     1     2   ar
    16     2     3   ar
    17     3     4   ar
    18     4     5   ar
    19     5     6   ar
    20     6    10    1
    21    10    11   ar
    22    11    12    1
    23    11    13   ar
    24    13    14   ar
    25    14    15   ar
    26    15    16   ar
    27    16    17    1
    28     6     7   ar
    29     7     8   ar
    30     8     9   ar
    31    23    24   ar
    32    24    25   ar
    33    25    20   ar
    34     9     1   ar
    35     8     4   ar
    36    16    10   ar
@<TRIPOS>MOLECULE
*****
 33 36 0 0 0
SMALL
GASTEIGER

@<TRIPOS>ATOM
      1 C          60.4893   89.2435    9.2365 C.ar    1  UNL1        0.0405
      2 C          59.6040   89.6412   10.3801 C.ar    1  UNL1        0.0040
      3 C          60.1943   90.2988   11.5921 C.ar    1  UNL1        0.0387
      4 C          61.6701   90.5587   11.6604 C.ar    1  UNL1        0.1655
      5 N          62.5309   91.1855   12.7170 N.ar    1  UNL1       -0.2061
      6 C          63.9483   91.1751   12.2262 C.ar    1  UNL1        0.1829
      7 N          63.9635   90.5419   10.8665 N.ar    1  UNL1       -0.1442
      8 N          62.5554   90.1610   10.5168 N.ar    1  UNL1       -0.2095
      9 C          61.9651   89.5034    9.3048 C.ar    1  UNL1        0.1014
     10 C          65.1413   91.7048   12.9655 C.ar    1  UNL1        0.0296
     11 C          65.9257   92.8514   12.3997 C.ar    1  UNL1       -0.0191
     12 C          65.5173   93.4681   11.0948 C.3     1  UNL1        0.0311
     13 C          67.1186   93.3811   13.1389 C.ar    1  UNL1       -0.0042
     14 C          67.5270   92.7643   14.4438 C.ar    1  UNL1       -0.0006
     15 C          66.7425   91.6178   15.0095 C.ar    1  UNL1       -0.0042
     16 C          65.5496   91.0880   14.2704 C.ar    1  UNL1       -0.0191
     17 C          64.7652   89.9415   14.8361 C.3     1  UNL1        0.0311
     18 C          59.8990   88.5858    8.0244 C.3     1  UNL1        0.2335
     19 O          60.2031   87.1471    7.7287 O.3     1  UNL1       -0.4706
     20 C          62.7427   84.7541   10.5702 C.ar    1  UNL1       -0.0099
     21 C          61.5842   85.5526   11.0902 C.ar    1  UNL1       -0.0002
     22 C          60.7377   86.3502   10.1431 C.ar    1  UNL1        0.0366
     23 C          61.0497   86.3494    8.6759 C.ar    1  UNL1        0.1390
     24 C          62.2082   85.5510    8.1559 C.ar    1  UNL1        0.0366
     25 C          63.0547   84.7533    9.1031 C.ar    1  UNL1       -0.0002
     26 C          63.5892   83.9564   11.5175 C.3     1  UNL1        0.0917
     27 C          64.3789   85.4963   15.6714 C.3     1  UNL1        0.0900
     28 C          64.1156   84.9830   14.2868 C.1     1  UNL1       -0.0897
     29 C          63.8524   84.4697   12.9021 C.1     1  UNL1       -0.0872
     30 C          64.1725   82.6456   11.0800 C.3     1  UNL1        0.0591
     31 C          63.3969   81.3768   11.2766 C.2     1  UNL1        0.0517
     32 O          63.0237   80.9325   12.6598 O.co2   1  UNL1       -0.5491
     33 O          62.9946   80.5522   10.0898 O.co2   1  UNL1       -0.5491
@<TRIPOS>UNITY_ATOM_ATTR
32 1
charge -1
@<TRIPOS>BOND
     1    27    28    1
     2    28    29    3
     3    26    29    1
     4    26    30    1
     5    30    31    1
     6    31    32   ar
     7    31    33   ar
     8    26    20    1
     9    20    21   ar
    10    21    22   ar
    11    22    23   ar
    12    23    19    1
    13    19    18    1
    14    18     1    1
    15     1     2   ar
    16     2     3   ar
    17     3     4   ar
    18     4     5   ar
    19     5     6   ar
    20     6    10    1
    21    10    11   ar
    22    11    12    1
    23    11    13   ar
    24    13    14   ar
    25    14    15   ar
    26    15    16   ar
    27    16    17    1
    28     6     7   ar
    29     7     8   ar
    30     8     9   ar
    31    23    24   ar
    32    24    25   ar
    33    25    20   ar
    34     9     1   ar
    35     8     4   ar
    36    16    10   ar
@<TRIPOS>MOLECULE
*****
 33 36 0 0 0
SMALL
GASTEIGER

@<TRIPOS>ATOM
      1 C          60.5248   89.0436    9.6475 C.ar    1  UNL1        0.0405
      2 C          59.7519   89.0983   10.9319 C.ar    1  UNL1        0.0040
      3 C          60.3858   89.6711   12.1648 C.ar    1  UNL1        0.0387
      4 C          61.7926   90.1892   12.1133 C.ar    1  UNL1        0.1655
      5 N          62.6742   90.8052   13.1590 N.ar    1  UNL1       -0.2061
      6 C          63.9920   91.1311   12.5208 C.ar    1  UNL1        0.1829
      7 N          63.9247   90.7166   11.0807 N.ar    1  UNL1       -0.1442
      8 N          62.5654   90.1345   10.8289 N.ar    1  UNL1       -0.2095
      9 C          61.9315   89.5617    9.5960 C.ar    1  UNL1        0.1014
     10 C          65.1702   91.7610   13.2028 C.ar    1  UNL1        0.0296
     11 C          65.6694   91.2048   14.5034 C.ar    1  UNL1       -0.0191
     12 C          64.9904   90.0189   15.1220 C.3     1  UNL1        0.0311
     13 C          66.8475   91.8346   15.1855 C.ar    1  UNL1       -0.0042
     14 C          67.5265   93.0205   14.5670 C.ar    1  UNL1       -0.0006
     15 C          67.0273   93.5766   13.2664 C.ar    1  UNL1       -0.0042
     16 C          65.8491   92.9469   12.5843 C.ar    1  UNL1       -0.0191
     17 C          65.3499   93.5030   11.2837 C.3     1  UNL1        0.0311
     18 C          59.8909   88.4707    8.4146 C.3     1  UNL1        0.2335
     19 O          60.5424   87.3242    7.6998 O.3     1  UNL1       -0.4706
     20 C          62.8330   84.2299   10.0296 C.ar    1  UNL1       -0.0099
     21 C          63.1090   84.4245    8.5681 C.ar    1  UNL1       -0.0002
     22 C          62.3455   85.4560    7.7915 C.ar    1  UNL1        0.0366
     23 C          61.3060   86.2927    8.4764 C.ar    1  UNL1        0.1390
     24 C          61.0300   86.0981    9.9379 C.ar    1  UNL1        0.0366
     25 C          61.7935   85.0667   10.7145 C.ar    1  UNL1       -0.0002
     26 C          63.5966   83.1984   10.8062 C.3     1  UNL1        0.0917
     27 C          62.9036   78.8220   10.0206 C.3     1  UNL1        0.0900
     28 C          63.1346   80.2808   10.2825 C.1     1  UNL1       -0.0897
     29 C          63.3656   81.7396   10.5444 C.1     1  UNL1       -0.0872
     30 C          64.5911   83.6257   11.8446 C.3     1  UNL1        0.0591
     31 C          64.1678   83.7621   13.2771 C.2     1  UNL1        0.0517
     32 O          65.0250   84.5251   14.2431 O.co2   1  UNL1       -0.5491
     33 O          62.8872   83.1356   13.7438 O.co2   1  UNL1       -0.5491
@<TRIPOS>UNITY_ATOM_ATTR
32 1
charge -1
@<TRIPOS>BOND
     1    27    28    1
     2    28    29    3
     3    26    29    1
     4    26    30    1
     5    30    31    1
     6    31    32   ar
     7    31    33   ar
     8    26    20    1
     9    20    21   ar
    10    21    22   ar
    11    22    23   ar
    12    23    19    1
    13    19    18    1
    14    18     1    1
    15     1     2   ar
    16     2     3   ar
    17     3     4   ar
    18     4     5   ar
    19     5     6   ar
    20     6    10    1
    21    10    11   ar
    22    11    12    1
    23    11    13   ar
    24    13    14   ar
    25    14    15   ar
    26    15    16   ar
    27    16    17    1
    28     6     7   ar
    29     7     8   ar
    30     8     9   ar
    31    23    24   ar
    32    24    25   ar
    33    25    20   ar
    34     9     1   ar
    35     8     4   ar
    36    16    10   ar
@<TRIPOS>MOLECULE
*****
 33 36 0 0 0
SMALL
GASTEIGER

@<TRIPOS>ATOM
      1 C          59.5718   90.3536    5.8297 C.ar    1  UNL1        0.0405
      2 C          58.3995   91.2069    5.4454 C.ar    1  UNL1        0.0040
      3 C          58.5314   92.2058    4.3343 C.ar    1  UNL1        0.0387
      4 C          59.8354   92.3515    3.6075 C.ar    1  UNL1        0.1655
      5 N          60.2616   93.2438    2.4795 N.ar    1  UNL1       -0.2061
      6 C          61.6972   92.9420    2.1667 C.ar    1  UNL1        0.1829
      7 N          62.1583   91.8631    3.1014 N.ar    1  UNL1       -0.1442
      8 N          61.0077   91.4983    3.9918 N.ar    1  UNL1       -0.2095
      9 C          60.8758   90.4993    5.1029 C.ar    1  UNL1        0.1014
     10 C          62.5263   93.6028    1.1055 C.ar    1  UNL1        0.0296
     11 C          63.7171   94.4296    1.4907 C.ar    1  UNL1       -0.0191
     12 C          64.0790   94.5954    2.9370 C.3     1  UNL1        0.0311
     13 C          64.5462   95.0904    0.4296 C.ar    1  UNL1       -0.0042
     14 C          64.1843   94.9246   -1.0166 C.ar    1  UNL1       -0.0006
     15 C          62.9934   94.0979   -1.4017 C.ar    1  UNL1       -0.0042
     16 C          62.1644   93.4370   -0.3406 C.ar    1  UNL1       -0.0191
     17 C          60.9735   92.6103   -0.7258 C.3     1  UNL1        0.0311
     18 C          59.4400   89.3546    6.9409 C.3     1  UNL1        0.2335
     19 O          60.0716   89.6276    8.2737 O.3     1  UNL1       -0.4706
     20 C          61.9697   86.2715   10.5940 C.ar    1  UNL1       -0.0099
     21 C          60.9731   85.9675    9.5149 C.ar    1  UNL1       -0.0002
     22 C          60.3404   87.0861    8.7415 C.ar    1  UNL1        0.0366
     23 C          60.7043   88.5088    9.0471 C.ar    1  UNL1        0.1390
     24 C          61.7009   88.8129   10.1262 C.ar    1  UNL1        0.0366
     25 C          62.3336   87.6942   10.8996 C.ar    1  UNL1       -0.0002
     26 C          62.6025   85.1527   11.3674 C.3     1  UNL1        0.0917
     27 C          64.4917   85.9708   15.3689 C.3     1  UNL1        0.0900
     28 C          63.8619   85.6981   14.0350 C.1     1  UNL1       -0.0897
     29 C          63.2322   85.4254   12.7012 C.1     1  UNL1       -0.0872
     30 C          62.6055   83.7614   10.8070 C.3     1  UNL1        0.0591
     31 C          63.6798   82.7941   11.2069 C.2     1  UNL1        0.0517
     32 O          64.9270   82.6753   10.3821 O.co2   1  UNL1       -0.5491
     33 O          63.5071   81.9456   12.4318 O.co2   1  UNL1       -0.5491
@<TRIPOS>UNITY_ATOM_ATTR
32 1
charge -1
@<TRIPOS>BOND
     1    27    28    1
     2    28    29    3
     3    26    29    1
     4    26    30    1
     5    30    31    1
     6    31    32   ar
     7    31    33   ar
     8    26    20    1
     9    20    21   ar
    10    21    22   ar
    11    22    23   ar
    12    23    19    1
    13    19    18    1
    14    18     1    1
    15     1     2   ar
    16     2     3   ar
    17     3     4   ar
    18     4     5   ar
    19     5     6   ar
    20     6    10    1
    21    10    11   ar
    22    11    12    1
    23    11    13   ar
    24    13    14   ar
    25    14    15   ar
    26    15    16   ar
    27    16    17    1
    28     6     7   ar
    29     7     8   ar
    30     8     9   ar
    31    23    24   ar
    32    24    25   ar
    33    25    20   ar
    34     9     1   ar
    35     8     4   ar
    36    16    10   ar
