@<TRIPOS>MOLECULE
*****
 17 19 0 0 0
SMALL
GASTEIGER

@<TRIPOS>ATOM
      1 C          64.6185   90.0423   14.1463 C.2     1  UNL1        0.0069
      2 C          64.4205   88.6301   14.6117 C.2     1  UNL1        0.0947
      3 N          63.6391   87.9006   13.5594 N.2     1  UNL1       -0.2481
      4 C          63.3543   88.8619   12.4437 C.2     1  UNL1        0.0631
      5 C          62.6220   88.7029   11.1443 C.3     1  UNL1        0.0717
      6 C          62.4950   89.8676   10.2076 C.2     1  UNL1       -0.0198
      7 C          63.1004   91.1912   10.5704 C.2     1  UNL1       -0.0042
      8 C          63.8327   91.3502   11.8697 C.2     1  UNL1        0.0006
      9 C          63.9597   90.1855   12.8064 C.2     1  UNL1        0.0119
     10 O          68.3650   93.4304   15.6846 O.2     1  UNL1       -0.2747
     11 C          67.0696   92.6790   15.5972 C.2     1  UNL1        0.2289
     12 C          66.7472   91.5883   14.6193 C.3     1  UNL1        0.0990
     13 C          65.3476   91.1217   14.8902 C.3     1  UNL1        0.1097
     14 C          64.8050   91.9241   16.0355 C.2     1  UNL1        0.2323
     15 O          63.4381   91.7878   16.6380 O.2     1  UNL1       -0.2743
     16 N          65.8692   92.8866   16.4726 N.am    1  UNL1       -0.2550
     17 H          65.7932   93.5398   17.2052 H       1  UNL1        0.1575
@<TRIPOS>BOND
     1    10    11    2
     2    11    12    1
     3    12    13    1
     4    13     1    1
     5     1     2    2
     6     2     3    1
     7     3     4    2
     8     4     5    1
     9     5     6    1
    10     6     7    2
    11     7     8    1
    12     8     9    2
    13    13    14    1
    14    14    15    2
    15    14    16   am
    16    16    11   am
    17     9     1    1
    18     9     4    1
    19    16    17    1
@<TRIPOS>MOLECULE
*****
 17 19 0 0 0
SMALL
GASTEIGER

@<TRIPOS>ATOM
      1 C          63.4368   83.6198   12.0151 C.2     1  UNL1        0.0069
      2 C          64.4590   82.7312   11.3705 C.2     1  UNL1        0.0947
      3 N          64.5035   83.0612    9.9079 N.2     1  UNL1       -0.2481
      4 C          63.5089   84.1537    9.6486 C.2     1  UNL1        0.0631
      5 C          63.1183   84.8787    8.3949 C.3     1  UNL1        0.0717
      6 C          62.0685   85.9489    8.4436 C.2     1  UNL1       -0.0198
      7 C          61.4092   86.2941    9.7459 C.2     1  UNL1       -0.0042
      8 C          61.7997   85.5691   10.9996 C.2     1  UNL1        0.0006
      9 C          62.8496   84.4989   10.9510 C.2     1  UNL1        0.0119
     10 O          62.3099   85.2746   16.9011 O.2     1  UNL1       -0.2747
     11 C          62.5487   84.3885   15.7145 C.2     1  UNL1        0.2289
     12 C          62.9325   84.8432   14.3376 C.3     1  UNL1        0.0990
     13 C          63.0667   83.6278   13.4687 C.3     1  UNL1        0.1097
     14 C          62.7659   82.4221   14.3086 C.2     1  UNL1        0.2323
     15 O          62.7823   80.9965   13.8424 O.2     1  UNL1       -0.2743
     16 N          62.4457   82.8921   15.6967 N.am    1  UNL1       -0.2550
     17 H          62.2095   82.3191   16.4616 H       1  UNL1        0.1575
@<TRIPOS>BOND
     1    10    11    2
     2    11    12    1
     3    12    13    1
     4    13     1    1
     5     1     2    2
     6     2     3    1
     7     3     4    2
     8     4     5    1
     9     5     6    1
    10     6     7    2
    11     7     8    1
    12     8     9    2
    13    13    14    1
    14    14    15    2
    15    14    16   am
    16    16    11   am
    17     9     1    1
    18     9     4    1
    19    16    17    1
@<TRIPOS>MOLECULE
*****
 17 19 0 0 0
SMALL
GASTEIGER

@<TRIPOS>ATOM
      1 C          66.9836   92.8864   11.0330 C.2     1  UNL1        0.0069
      2 C          67.8309   92.1216   10.0597 C.2     1  UNL1        0.0947
      3 N          68.1780   93.0402    8.9258 N.2     1  UNL1       -0.2481
      4 C          67.5453   94.3727    9.1983 C.2     1  UNL1        0.0631
      5 C          67.5459   95.6602    8.4288 C.3     1  UNL1        0.0717
      6 C          66.8083   96.8527    8.9616 C.2     1  UNL1       -0.0198
      7 C          66.0701   96.7576   10.2639 C.2     1  UNL1       -0.0042
      8 C          66.0695   95.4700   11.0334 C.2     1  UNL1        0.0006
      9 C          66.8071   94.2776   10.5006 C.2     1  UNL1        0.0119
     10 O          63.5830   91.1011   14.6564 O.2     1  UNL1       -0.2747
     11 C          64.8499   91.5329   13.9793 C.2     1  UNL1        0.2289
     12 C          64.9693   92.0393   12.5724 C.3     1  UNL1        0.0990
     13 C          66.4130   92.3535   12.3138 C.3     1  UNL1        0.1097
     14 C          67.1859   92.0412   13.5607 C.2     1  UNL1        0.2323
     15 O          68.6652   92.2070   13.7459 O.2     1  UNL1       -0.2743
     16 N          66.2199   91.5340   14.5902 N.am    1  UNL1       -0.2550
     17 H          66.4455   91.2516   15.5059 H       1  UNL1        0.1575
@<TRIPOS>BOND
     1    10    11    2
     2    11    12    1
     3    12    13    1
     4    13     1    1
     5     1     2    2
     6     2     3    1
     7     3     4    2
     8     4     5    1
     9     5     6    1
    10     6     7    2
    11     7     8    1
    12     8     9    2
    13    13    14    1
    14    14    15    2
    15    14    16   am
    16    16    11   am
    17     9     1    1
    18     9     4    1
    19    16    17    1
@<TRIPOS>MOLECULE
*****
 17 19 0 0 0
SMALL
GASTEIGER

@<TRIPOS>ATOM
      1 C          62.0584   86.7622   10.3234 C.2     1  UNL1        0.0069
      2 C          62.4793   85.9441   11.5082 C.2     1  UNL1        0.0947
      3 N          63.0410   86.8771   12.5396 N.2     1  UNL1       -0.2481
      4 C          62.9672   88.2718   11.9924 C.2     1  UNL1        0.0631
      5 C          63.3746   89.5973   12.5644 C.3     1  UNL1        0.0717
      6 C          63.1746   90.8516   11.7666 C.2     1  UNL1       -0.0198
      7 C          62.5673   90.7806   10.3969 C.2     1  UNL1       -0.0042
      8 C          62.1600   89.4551    9.8249 C.2     1  UNL1        0.0006
      9 C          62.3599   88.2007   10.6227 C.2     1  UNL1        0.0119
     10 O          61.3785   84.1862    5.7646 O.2     1  UNL1       -0.2747
     11 C          61.1313   85.0503    6.9656 C.2     1  UNL1        0.2289
     12 C          62.1071   85.3225    8.0718 C.3     1  UNL1        0.0990
     13 C          61.4438   86.2343    9.0610 C.3     1  UNL1        0.1097
     14 C          60.0580   86.5255    8.5663 C.2     1  UNL1        0.2323
     15 O          59.0435   87.3957    9.2471 O.2     1  UNL1       -0.2743
     16 N          59.8648   85.7937    7.2712 N.am    1  UNL1       -0.2550
     17 H          59.0499   85.8003    6.7188 H       1  UNL1        0.1575
@<TRIPOS>BOND
     1    10    11    2
     2    11    12    1
     3    12    13    1
     4    13     1    1
     5     1     2    2
     6     2     3    1
     7     3     4    2
     8     4     5    1
     9     5     6    1
    10     6     7    2
    11     7     8    1
    12     8     9    2
    13    13    14    1
    14    14    15    2
    15    14    16   am
    16    16    11   am
    17     9     1    1
    18     9     4    1
    19    16    17    1
@<TRIPOS>MOLECULE
*****
 17 19 0 0 0
SMALL
GASTEIGER

@<TRIPOS>ATOM
      1 C          63.1458   85.9330   13.1294 C.2     1  UNL1        0.0069
      2 C          63.7844   87.1648   13.6993 C.2     1  UNL1        0.0947
      3 N          63.5401   88.2969   12.7460 N.2     1  UNL1       -0.2481
      4 C          62.7504   87.7648   11.5870 C.2     1  UNL1        0.0631
      5 C          62.2218   88.4218   10.3465 C.3     1  UNL1        0.0717
      6 C          61.4495   87.6179    9.3430 C.2     1  UNL1       -0.0198
      7 C          61.2058   86.1569    9.5799 C.2     1  UNL1       -0.0042
      8 C          61.7344   85.4998   10.8204 C.2     1  UNL1        0.0006
      9 C          62.5067   86.3038   11.8239 C.2     1  UNL1        0.0119
     10 O          63.8629   80.7575   13.8913 O.2     1  UNL1       -0.2747
     11 C          63.4758   82.1908   14.1052 C.2     1  UNL1        0.2289
     12 C          63.6788   83.3137   13.1316 C.3     1  UNL1        0.0990
     13 C          63.1461   84.5697   13.7550 C.3     1  UNL1        0.1097
     14 C          62.6138   84.2231   15.1138 C.2     1  UNL1        0.2323
     15 O          61.9877   85.1789   16.0856 O.2     1  UNL1       -0.2743
     16 N          62.8175   82.7528   15.3304 N.am    1  UNL1       -0.2550
     17 H          62.5638   82.2458   16.1352 H       1  UNL1        0.1575
@<TRIPOS>BOND
     1    10    11    2
     2    11    12    1
     3    12    13    1
     4    13     1    1
     5     1     2    2
     6     2     3    1
     7     3     4    2
     8     4     5    1
     9     5     6    1
    10     6     7    2
    11     7     8    1
    12     8     9    2
    13    13    14    1
    14    14    15    2
    15    14    16   am
    16    16    11   am
    17     9     1    1
    18     9     4    1
    19    16    17    1
@<TRIPOS>MOLECULE
*****
 17 19 0 0 0
SMALL
GASTEIGER

@<TRIPOS>ATOM
      1 C          61.2887   87.7465   10.0197 C.2     1  UNL1        0.0069
      2 C          59.8696   88.1574    9.7602 C.2     1  UNL1        0.0947
      3 N          59.3623   87.3612    8.5946 N.2     1  UNL1       -0.2481
      4 C          60.4678   86.4583    8.1336 C.2     1  UNL1        0.0631
      5 C          60.5442   85.4500    7.0257 C.3     1  UNL1        0.0717
      6 C          61.8112   84.6799    6.7985 C.2     1  UNL1       -0.0198
      7 C          63.0018   84.9181    7.6793 C.2     1  UNL1       -0.0042
      8 C          62.9254   85.9263    8.7873 C.2     1  UNL1        0.0006
      9 C          61.6584   86.6964    9.0144 C.2     1  UNL1        0.0119
     10 O          64.0707   91.0741   13.0311 O.2     1  UNL1       -0.2747
     11 C          63.4601   89.8197   12.4798 C.2     1  UNL1        0.2289
     12 C          62.5524   89.7307   11.2888 C.3     1  UNL1        0.0990
     13 C          62.1813   88.2902   11.0956 C.3     1  UNL1        0.1097
     14 C          62.8595   87.4891   12.1670 C.2     1  UNL1        0.2323
     15 O          62.7642   86.0035   12.3507 O.2     1  UNL1       -0.2743
     16 N          63.6499   88.4343   13.0226 N.am    1  UNL1       -0.2550
     17 H          64.1971   88.1886   13.8032 H       1  UNL1        0.1575
@<TRIPOS>BOND
     1    10    11    2
     2    11    12    1
     3    12    13    1
     4    13     1    1
     5     1     2    2
     6     2     3    1
     7     3     4    2
     8     4     5    1
     9     5     6    1
    10     6     7    2
    11     7     8    1
    12     8     9    2
    13    13    14    1
    14    14    15    2
    15    14    16   am
    16    16    11   am
    17     9     1    1
    18     9     4    1
    19    16    17    1
@<TRIPOS>MOLECULE
*****
 17 19 0 0 0
SMALL
GASTEIGER

@<TRIPOS>ATOM
      1 C          64.6090   91.0265   14.7801 C.2     1  UNL1        0.0069
      2 C          63.9265   91.4649   16.0418 C.2     1  UNL1        0.0947
      3 N          64.8823   92.3294   16.8094 N.2     1  UNL1       -0.2481
      4 C          66.1555   92.4252   16.0220 C.2     1  UNL1        0.0631
      5 C          67.4467   93.1417   16.2851 C.3     1  UNL1        0.0717
      6 C          68.5691   93.0529   15.2940 C.2     1  UNL1       -0.0198
      7 C          68.4002   92.2476   14.0398 C.2     1  UNL1       -0.0042
      8 C          67.1089   91.5312   13.7767 C.2     1  UNL1        0.0006
      9 C          65.9865   91.6200   14.7678 C.2     1  UNL1        0.0119
     10 O          62.3958   89.3943   10.2724 O.2     1  UNL1       -0.2747
     11 C          63.0004   89.3984   11.6452 C.2     1  UNL1        0.2289
     12 C          63.4964   90.6045   12.3866 C.3     1  UNL1        0.0990
     13 C          64.0177   90.1486   13.7172 C.3     1  UNL1        0.1097
     14 C          63.8440   88.6610   13.7981 C.2     1  UNL1        0.2323
     15 O          64.2310   87.7899   14.9563 O.2     1  UNL1       -0.2743
     16 N          63.2152   88.1972   12.5176 N.am    1  UNL1       -0.2550
     17 H          62.9842   87.2678   12.2898 H       1  UNL1        0.1575
@<TRIPOS>BOND
     1    10    11    2
     2    11    12    1
     3    12    13    1
     4    13     1    1
     5     1     2    2
     6     2     3    1
     7     3     4    2
     8     4     5    1
     9     5     6    1
    10     6     7    2
    11     7     8    1
    12     8     9    2
    13    13    14    1
    14    14    15    2
    15    14    16   am
    16    16    11   am
    17     9     1    1
    18     9     4    1
    19    16    17    1
@<TRIPOS>MOLECULE
*****
 17 19 0 0 0
SMALL
GASTEIGER

@<TRIPOS>ATOM
      1 C          63.1152   84.7985   12.4735 C.2     1  UNL1        0.0069
      2 C          63.7297   85.5718   13.6024 C.2     1  UNL1        0.0947
      3 N          63.5699   87.0331   13.3041 N.2     1  UNL1       -0.2481
      4 C          62.8566   87.1629   11.9909 C.2     1  UNL1        0.0631
      5 C          62.4268   88.3603   11.1963 C.3     1  UNL1        0.0717
      6 C          61.7159   88.1765    9.8883 C.2     1  UNL1       -0.0198
      7 C          61.4349   86.7954    9.3749 C.2     1  UNL1       -0.0042
      8 C          61.8648   85.5980   10.1696 C.2     1  UNL1        0.0006
      9 C          62.5757   85.7818   11.4775 C.2     1  UNL1        0.0119
     10 O          61.9612   79.7348   13.4269 O.2     1  UNL1       -0.2747
     11 C          62.5211   80.9766   12.7986 C.2     1  UNL1        0.2289
     12 C          62.3145   82.3806   13.2845 C.3     1  UNL1        0.0990
     13 C          63.0515   83.3041   12.3604 C.3     1  UNL1        0.1097
     14 C          63.7135   82.4708   11.3034 C.2     1  UNL1        0.2323
     15 O          64.5556   82.9857   10.1738 O.2     1  UNL1       -0.2743
     16 N          63.3858   81.0323   11.5741 N.am    1  UNL1       -0.2550
     17 H          63.6855   80.2604   11.0417 H       1  UNL1        0.1575
@<TRIPOS>BOND
     1    10    11    2
     2    11    12    1
     3    12    13    1
     4    13     1    1
     5     1     2    2
     6     2     3    1
     7     3     4    2
     8     4     5    1
     9     5     6    1
    10     6     7    2
    11     7     8    1
    12     8     9    2
    13    13    14    1
    14    14    15    2
    15    14    16   am
    16    16    11   am
    17     9     1    1
    18     9     4    1
    19    16    17    1
@<TRIPOS>MOLECULE
*****
 17 19 0 0 0
SMALL
GASTEIGER

@<TRIPOS>ATOM
      1 C          62.9571   85.1873   12.9780 C.2     1  UNL1        0.0069
      2 C          63.6955   86.1873   13.8175 C.2     1  UNL1        0.0947
      3 N          63.6126   87.5190   13.1322 N.2     1  UNL1       -0.2481
      4 C          62.8230   87.3420   11.8691 C.2     1  UNL1        0.0631
      5 C          62.4205   88.3069   10.7935 C.3     1  UNL1        0.0717
      6 C          61.6130   87.8307    9.6226 C.2     1  UNL1       -0.0198
      7 C          61.2079   86.3896    9.5273 C.2     1  UNL1       -0.0042
      8 C          61.6103   85.4247   10.6029 C.2     1  UNL1        0.0006
      9 C          62.4179   85.9009   11.7738 C.2     1  UNL1        0.0119
     10 O          62.5943   79.9472   12.4378 O.2     1  UNL1       -0.2747
     11 C          62.6209   81.3209   13.0398 C.2     1  UNL1        0.2289
     12 C          62.8401   82.6052   12.2965 C.3     1  UNL1        0.0990
     13 C          62.7877   83.7295   13.2881 C.3     1  UNL1        0.1097
     14 C          62.5362   83.1400   14.6443 C.2     1  UNL1        0.2323
     15 O          62.4099   83.9048   15.9284 O.2     1  UNL1       -0.2743
     16 N          62.4331   81.6514   14.4909 N.am    1  UNL1       -0.2550
     17 H          62.2707   81.0049   15.2154 H       1  UNL1        0.1575
@<TRIPOS>BOND
     1    10    11    2
     2    11    12    1
     3    12    13    1
     4    13     1    1
     5     1     2    2
     6     2     3    1
     7     3     4    2
     8     4     5    1
     9     5     6    1
    10     6     7    2
    11     7     8    1
    12     8     9    2
    13    13    14    1
    14    14    15    2
    15    14    16   am
    16    16    11   am
    17     9     1    1
    18     9     4    1
    19    16    17    1
