@<TRIPOS>MOLECULE
*****
 26 29 0 0 0
SMALL
GASTEIGER

@<TRIPOS>ATOM
      1 C          63.4777   90.6628   13.3553 C.ar    1  UNL1        0.0731
      2 C          62.2516   90.2016   12.6245 C.ar    1  UNL1        0.0024
      3 C          62.0853   90.5142   11.1670 C.ar    1  UNL1       -0.0159
      4 C          63.1449   91.2881   10.4401 C.ar    1  UNL1       -0.0007
      5 C          64.3710   91.7493   11.1709 C.ar    1  UNL1        0.0375
      6 C          65.5746   92.5241   10.7227 C.ar    1  UNL1        0.0437
      7 C          66.4849   92.6903   11.9032 C.ar    1  UNL1        0.1796
      8 O          65.8438   92.0182   13.0811 O.2     1  UNL1       -0.4503
      9 C          64.5374   91.4367   12.6285 C.ar    1  UNL1        0.1484
     10 O          63.7490   91.4644   15.8118 O.2     1  UNL1       -0.2865
     11 C          63.6441   90.3502   14.8129 C.2     1  UNL1        0.1985
     12 C          63.7055   88.9234   15.2717 C.ar    1  UNL1        0.0399
     13 C          64.3551   87.8846   14.4063 C.ar    1  UNL1        0.0032
     14 C          64.4164   86.4578   14.8652 C.ar    1  UNL1        0.0010
     15 C          63.8282   86.0698   16.1893 C.ar    1  UNL1        0.0114
     16 C          63.1786   87.1087   17.0548 C.ar    1  UNL1        0.0578
     17 CL         62.5904   86.7207   18.3789 Cl      1  UNL1       -0.0822
     18 C          63.1172   88.5355   16.5960 C.ar    1  UNL1        0.0146
     19 C          60.8591   90.0530   10.4362 C.3     1  UNL1        0.0734
     20 C          60.9063   88.8050    9.6053 C.2     1  UNL1        0.0789
     21 C          62.0097   87.8095    9.8091 C.2     1  UNL1        0.0002
     22 C          62.0568   86.5616    8.9781 C.3     1  UNL1        0.1159
     23 C          61.0006   86.3092    7.9434 C.2     1  UNL1        0.2671
     24 O          61.0477   85.0612    7.1124 O.2     1  UNL1       -0.2711
     25 N          59.8973   87.3046    7.7396 N.am    1  UNL1       -0.0793
     26 N          59.8501   88.5526    8.5705 N.2     1  UNL1       -0.1605
@<TRIPOS>BOND
     1    10    11    2
     2    11    12    1
     3    12    13   ar
     4    13    14   ar
     5    14    15   ar
     6    15    16   ar
     7    16    17    1
     8    16    18   ar
     9    11     1    1
    10     1     2   ar
    11     2     3   ar
    12     3    19    1
    13    19    20    1
    14    20    21    2
    15    21    22    1
    16    22    23    1
    17    23    24    2
    18    23    25    1
    19    25    26    2
    20     3     4   ar
    21     4     5   ar
    22     5     6   ar
    23     6     7   ar
    24     7     8   ar
    25     8     9   ar
    26    18    12   ar
    27     9     1   ar
    28    26    20    1
    29     9     5   ar
@<TRIPOS>MOLECULE
*****
 26 29 0 0 0
SMALL
GASTEIGER

@<TRIPOS>ATOM
      1 C          63.9772   90.6538   14.2444 C.ar    1  UNL1        0.0731
      2 C          65.2300   91.4526   14.0385 C.ar    1  UNL1        0.0024
      3 C          65.5688   91.9782   12.6752 C.ar    1  UNL1       -0.0159
      4 C          64.6548   91.7052   11.5175 C.ar    1  UNL1       -0.0007
      5 C          63.4019   90.9064   11.7234 C.ar    1  UNL1        0.0375
      6 C          62.3168   90.4804   10.7795 C.ar    1  UNL1        0.0437
      7 C          61.3074   89.6914   11.5595 C.ar    1  UNL1        0.1796
      8 O          61.7686   89.6298   12.9855 O.2     1  UNL1       -0.4503
      9 C          63.0631   90.3808   13.0868 C.ar    1  UNL1        0.1484
     10 O          63.3147   91.0813   16.7200 O.2     1  UNL1       -0.2865
     11 C          63.6384   90.1282   15.6078 C.2     1  UNL1        0.1985
     12 C          63.6232   88.6495   15.8591 C.ar    1  UNL1        0.0399
     13 C          62.9411   88.1028   17.0780 C.ar    1  UNL1        0.0032
     14 C          62.9260   86.6240   17.3292 C.ar    1  UNL1        0.0010
     15 C          63.5929   85.6920   16.3616 C.ar    1  UNL1        0.0114
     16 C          64.2750   86.2387   15.1426 C.ar    1  UNL1        0.0578
     17 CL         64.9420   85.3067   14.1749 Cl      1  UNL1       -0.0822
     18 C          64.2902   87.7174   14.8913 C.ar    1  UNL1        0.0146
     19 C          66.8217   92.7770   12.4693 C.3     1  UNL1        0.0734
     20 C          66.9023   93.7701   11.3481 C.2     1  UNL1        0.0789
     21 C          66.1471   95.0631   11.4357 C.2     1  UNL1        0.0002
     22 C          66.2277   96.0563   10.3145 C.3     1  UNL1        0.1159
     23 C          67.0635   95.7563    9.1055 C.2     1  UNL1        0.2671
     24 O          67.1441   96.7494    7.9842 O.2     1  UNL1       -0.2711
     25 N          67.8187   94.4633    9.0179 N.am    1  UNL1       -0.0793
     26 N          67.7381   93.4702   10.1391 N.2     1  UNL1       -0.1605
@<TRIPOS>BOND
     1    10    11    2
     2    11    12    1
     3    12    13   ar
     4    13    14   ar
     5    14    15   ar
     6    15    16   ar
     7    16    17    1
     8    16    18   ar
     9    11     1    1
    10     1     2   ar
    11     2     3   ar
    12     3    19    1
    13    19    20    1
    14    20    21    2
    15    21    22    1
    16    22    23    1
    17    23    24    2
    18    23    25    1
    19    25    26    2
    20     3     4   ar
    21     4     5   ar
    22     5     6   ar
    23     6     7   ar
    24     7     8   ar
    25     8     9   ar
    26    18    12   ar
    27     9     1   ar
    28    26    20    1
    29     9     5   ar
@<TRIPOS>MOLECULE
*****
 26 29 0 0 0
SMALL
GASTEIGER

@<TRIPOS>ATOM
      1 C          63.6495   90.4696   13.3047 C.ar    1  UNL1        0.0731
      2 C          62.8259   89.4921   12.5198 C.ar    1  UNL1        0.0024
      3 C          62.7357   89.6154   11.0276 C.ar    1  UNL1       -0.0159
      4 C          63.4690   90.7163   10.3203 C.ar    1  UNL1       -0.0007
      5 C          64.2926   91.6939   11.1052 C.ar    1  UNL1        0.0375
      6 C          65.1196   92.8732   10.6867 C.ar    1  UNL1        0.0437
      7 C          65.7209   93.4788   11.9203 C.ar    1  UNL1        0.1796
      8 O          65.2656   92.6737   13.1012 O.2     1  UNL1       -0.4503
      9 C          64.3828   91.5705   12.5975 C.ar    1  UNL1        0.1484
     10 O          63.9001   91.5747   15.6427 O.2     1  UNL1       -0.2865
     11 C          63.7397   90.3462   14.7969 C.2     1  UNL1        0.1985
     12 C          63.6694   88.9945   15.4433 C.ar    1  UNL1        0.0399
     13 C          62.9736   88.8290   16.7618 C.ar    1  UNL1        0.0032
     14 C          62.9034   87.4771   17.4082 C.ar    1  UNL1        0.0010
     15 C          63.5290   86.2911   16.7362 C.ar    1  UNL1        0.0114
     16 C          64.2249   86.4567   15.4177 C.ar    1  UNL1        0.0578
     17 CL         64.8505   85.2705   14.7456 Cl      1  UNL1       -0.0822
     18 C          64.2951   87.8084   14.7712 C.ar    1  UNL1        0.0146
     19 C          61.9121   88.6378   10.2427 C.3     1  UNL1        0.0734
     20 C          62.2894   87.1861   10.2214 C.2     1  UNL1        0.0789
     21 C          62.6194   86.5159    8.9207 C.2     1  UNL1        0.0002
     22 C          62.9967   85.0643    8.8994 C.3     1  UNL1        0.1159
     23 C          63.0440   84.2829   10.1789 C.2     1  UNL1        0.2671
     24 O          63.4213   82.8313   10.1578 O.2     1  UNL1       -0.2711
     25 N          62.7141   84.9531   11.4797 N.am    1  UNL1       -0.0793
     26 N          62.3368   86.4047   11.5009 N.2     1  UNL1       -0.1605
@<TRIPOS>BOND
     1    10    11    2
     2    11    12    1
     3    12    13   ar
     4    13    14   ar
     5    14    15   ar
     6    15    16   ar
     7    16    17    1
     8    16    18   ar
     9    11     1    1
    10     1     2   ar
    11     2     3   ar
    12     3    19    1
    13    19    20    1
    14    20    21    2
    15    21    22    1
    16    22    23    1
    17    23    24    2
    18    23    25    1
    19    25    26    2
    20     3     4   ar
    21     4     5   ar
    22     5     6   ar
    23     6     7   ar
    24     7     8   ar
    25     8     9   ar
    26    18    12   ar
    27     9     1   ar
    28    26    20    1
    29     9     5   ar
@<TRIPOS>MOLECULE
*****
 26 29 0 0 0
SMALL
GASTEIGER

@<TRIPOS>ATOM
      1 C          65.0044   91.7214   12.9620 C.ar    1  UNL1        0.0731
      2 C          65.0031   90.9140   14.2262 C.ar    1  UNL1        0.0024
      3 C          64.0900   89.7316   14.3600 C.ar    1  UNL1       -0.0159
      4 C          63.1780   89.3565   13.2296 C.ar    1  UNL1       -0.0007
      5 C          63.1793   90.1639   11.9655 C.ar    1  UNL1        0.0375
      6 C          62.3971   90.0358   10.6920 C.ar    1  UNL1        0.0437
      7 C          62.8269   91.1391    9.7712 C.ar    1  UNL1        0.1796
      8 O          63.8747   91.9491   10.4755 O.2     1  UNL1       -0.4503
      9 C          64.0925   91.3463   11.8317 C.ar    1  UNL1        0.1484
     10 O          66.0790   93.8602   13.9726 O.2     1  UNL1       -0.2865
     11 C          65.9176   92.9039   12.8282 C.2     1  UNL1        0.1985
     12 C          66.6694   93.1300   11.5501 C.ar    1  UNL1        0.0399
     13 C          67.6074   92.0786   11.0356 C.ar    1  UNL1        0.0032
     14 C          68.3592   92.3048    9.7574 C.ar    1  UNL1        0.0010
     15 C          68.1731   93.5824    8.9939 C.ar    1  UNL1        0.0114
     16 C          67.2351   94.6339    9.5085 C.ar    1  UNL1        0.0578
     17 CL         67.0490   95.9115    8.7449 Cl      1  UNL1       -0.0822
     18 C          66.4833   94.4077   10.7866 C.ar    1  UNL1        0.0146
     19 C          64.0887   88.9242   15.6243 C.3     1  UNL1        0.0734
     20 C          63.8629   87.4424   15.5676 C.2     1  UNL1        0.0789
     21 C          64.6670   86.5968   14.6251 C.2     1  UNL1        0.0002
     22 C          64.4413   85.1149   14.5684 C.3     1  UNL1        0.1159
     23 C          63.4114   84.4787   15.4542 C.2     1  UNL1        0.2671
     24 O          63.1856   82.9969   15.3975 O.2     1  UNL1       -0.2711
     25 N          62.6073   85.3244   16.3967 N.am    1  UNL1       -0.0793
     26 N          62.8331   86.8062   16.4534 N.2     1  UNL1       -0.1605
@<TRIPOS>BOND
     1    10    11    2
     2    11    12    1
     3    12    13   ar
     4    13    14   ar
     5    14    15   ar
     6    15    16   ar
     7    16    17    1
     8    16    18   ar
     9    11     1    1
    10     1     2   ar
    11     2     3   ar
    12     3    19    1
    13    19    20    1
    14    20    21    2
    15    21    22    1
    16    22    23    1
    17    23    24    2
    18    23    25    1
    19    25    26    2
    20     3     4   ar
    21     4     5   ar
    22     5     6   ar
    23     6     7   ar
    24     7     8   ar
    25     8     9   ar
    26    18    12   ar
    27     9     1   ar
    28    26    20    1
    29     9     5   ar
@<TRIPOS>MOLECULE
*****
 26 29 0 0 0
SMALL
GASTEIGER

@<TRIPOS>ATOM
      1 C          64.2014   89.8410   14.4628 C.ar    1  UNL1        0.0731
      2 C          64.5782   88.5174   15.0594 C.ar    1  UNL1        0.0024
      3 C          64.2326   87.2460   14.3426 C.ar    1  UNL1       -0.0159
      4 C          63.5100   87.2981   13.0291 C.ar    1  UNL1       -0.0007
      5 C          63.1332   88.6218   12.4325 C.ar    1  UNL1        0.0375
      6 C          62.4227   88.9843   11.1621 C.ar    1  UNL1        0.0437
      7 C          62.3293   90.4798   11.0939 C.ar    1  UNL1        0.1796
      8 O          62.9820   91.0416   12.3221 O.2     1  UNL1       -0.4503
      9 C          63.4789   89.8932   13.1494 C.ar    1  UNL1        0.1484
     10 O          63.5073   91.8182   15.9989 O.2     1  UNL1       -0.2865
     11 C          64.5471   91.1125   15.1797 C.2     1  UNL1        0.1985
     12 C          65.9325   91.6783   15.0775 C.ar    1  UNL1        0.0399
     13 C          66.4635   92.5631   16.1661 C.ar    1  UNL1        0.0032
     14 C          67.8490   93.1289   16.0638 C.ar    1  UNL1        0.0010
     15 C          68.7033   92.8099   14.8730 C.ar    1  UNL1        0.0114
     16 C          68.1723   91.9250   13.7843 C.ar    1  UNL1        0.0578
     17 CL         69.0267   91.6060   12.5934 Cl      1  UNL1       -0.0822
     18 C          66.7869   91.3592   13.8865 C.ar    1  UNL1        0.0146
     19 C          64.6094   85.9223   14.9393 C.3     1  UNL1        0.0734
     20 C          63.9591   84.6643   14.4447 C.2     1  UNL1        0.0789
     21 C          64.5770   83.8947   13.3152 C.2     1  UNL1        0.0002
     22 C          63.9267   82.6367   12.8206 C.3     1  UNL1        0.1159
     23 C          62.6585   82.1483   13.4555 C.2     1  UNL1        0.2671
     24 O          62.0081   80.8904   12.9610 O.2     1  UNL1       -0.2711
     25 N          62.0406   82.9180   14.5850 N.am    1  UNL1       -0.0793
     26 N          62.6909   84.1760   15.0796 N.2     1  UNL1       -0.1605
@<TRIPOS>BOND
     1    10    11    2
     2    11    12    1
     3    12    13   ar
     4    13    14   ar
     5    14    15   ar
     6    15    16   ar
     7    16    17    1
     8    16    18   ar
     9    11     1    1
    10     1     2   ar
    11     2     3   ar
    12     3    19    1
    13    19    20    1
    14    20    21    2
    15    21    22    1
    16    22    23    1
    17    23    24    2
    18    23    25    1
    19    25    26    2
    20     3     4   ar
    21     4     5   ar
    22     5     6   ar
    23     6     7   ar
    24     7     8   ar
    25     8     9   ar
    26    18    12   ar
    27     9     1   ar
    28    26    20    1
    29     9     5   ar
@<TRIPOS>MOLECULE
*****
 26 29 0 0 0
SMALL
GASTEIGER

@<TRIPOS>ATOM
      1 C          62.0086   86.5202   10.3037 C.ar    1  UNL1        0.0731
      2 C          62.3428   87.5644   11.3274 C.ar    1  UNL1        0.0024
      3 C          61.6391   88.8888   11.3051 C.ar    1  UNL1       -0.0159
      4 C          60.6011   89.1692   10.2591 C.ar    1  UNL1       -0.0007
      5 C          60.2669   88.1250    9.2355 C.ar    1  UNL1        0.0375
      6 C          59.2959   88.1148    8.0922 C.ar    1  UNL1        0.0437
      7 C          59.3996   86.7841    7.4079 C.ar    1  UNL1        0.1796
      8 O          60.4346   85.9717    8.1282 O.2     1  UNL1       -0.4503
      9 C          60.9706   86.8005    9.2578 C.ar    1  UNL1        0.1484
     10 O          63.4293   84.7067    9.1025 O.2     1  UNL1       -0.2865
     11 C          62.7123   85.1957   10.3260 C.2     1  UNL1        0.1985
     12 C          62.6991   84.3603   11.5718 C.ar    1  UNL1        0.0399
     13 C          62.6935   85.0214   12.9182 C.ar    1  UNL1        0.0032
     14 C          62.6803   84.1859   14.1639 C.ar    1  UNL1        0.0010
     15 C          62.6727   82.6894   14.0632 C.ar    1  UNL1        0.0114
     16 C          62.6784   82.0282   12.7167 C.ar    1  UNL1        0.0578
     17 CL         62.6708   80.5316   12.6160 Cl      1  UNL1       -0.0822
     18 C          62.6916   82.8636   11.4710 C.ar    1  UNL1        0.0146
     19 C          61.9733   89.9331   12.3289 C.3     1  UNL1        0.0734
     20 C          63.1554   90.8334   12.1235 C.2     1  UNL1        0.0789
     21 C          63.5773   91.2123   10.7349 C.2     1  UNL1        0.0002
     22 C          64.7594   92.1126   10.5296 C.3     1  UNL1        0.1159
     23 C          65.5196   92.6340   11.7129 C.2     1  UNL1        0.2671
     24 O          66.7017   93.5343   11.5077 O.2     1  UNL1       -0.2711
     25 N          65.0977   92.2551   13.1016 N.am    1  UNL1       -0.0793
     26 N          63.9156   91.3548   13.3069 N.2     1  UNL1       -0.1605
@<TRIPOS>BOND
     1    10    11    2
     2    11    12    1
     3    12    13   ar
     4    13    14   ar
     5    14    15   ar
     6    15    16   ar
     7    16    17    1
     8    16    18   ar
     9    11     1    1
    10     1     2   ar
    11     2     3   ar
    12     3    19    1
    13    19    20    1
    14    20    21    2
    15    21    22    1
    16    22    23    1
    17    23    24    2
    18    23    25    1
    19    25    26    2
    20     3     4   ar
    21     4     5   ar
    22     5     6   ar
    23     6     7   ar
    24     7     8   ar
    25     8     9   ar
    26    18    12   ar
    27     9     1   ar
    28    26    20    1
    29     9     5   ar
@<TRIPOS>MOLECULE
*****
 26 29 0 0 0
SMALL
GASTEIGER

@<TRIPOS>ATOM
      1 C          61.5078   88.5118   10.5623 C.ar    1  UNL1        0.0731
      2 C          62.2956   87.5967   11.4522 C.ar    1  UNL1        0.0024
      3 C          62.3235   86.1227   11.1760 C.ar    1  UNL1       -0.0159
      4 C          61.5636   85.5636   10.0099 C.ar    1  UNL1       -0.0007
      5 C          60.7757   86.4787    9.1200 C.ar    1  UNL1        0.0375
      6 C          59.9344   86.2186    7.9056 C.ar    1  UNL1        0.0437
      7 C          59.3866   87.5320    7.4314 C.ar    1  UNL1        0.1796
      8 O          59.8893   88.6037    8.3526 O.2     1  UNL1       -0.4503
      9 C          60.7478   87.9528    9.3962 C.ar    1  UNL1        0.1484
     10 O          60.2003   90.7536   10.6855 O.2     1  UNL1       -0.2865
     11 C          61.4799   89.9859   10.8386 C.2     1  UNL1        0.1985
     12 C          62.7315   90.6923   11.2679 C.ar    1  UNL1        0.0399
     13 C          63.4954   91.5289   10.2848 C.ar    1  UNL1        0.0032
     14 C          64.7471   92.2354   10.7142 C.ar    1  UNL1        0.0010
     15 C          65.2348   92.1051   12.1265 C.ar    1  UNL1        0.0114
     16 C          64.4709   91.2685   13.1098 C.ar    1  UNL1        0.0578
     17 CL         64.9588   91.1383   14.5222 Cl      1  UNL1       -0.0822
     18 C          63.2193   90.5620   12.6804 C.ar    1  UNL1        0.0146
     19 C          63.1114   85.2077   12.0660 C.3     1  UNL1        0.0734
     20 C          63.1179   85.4269   13.5499 C.2     1  UNL1        0.0789
     21 C          64.1647   86.3011   14.1743 C.2     1  UNL1        0.0002
     22 C          64.1711   86.5204   15.6582 C.3     1  UNL1        0.1159
     23 C          63.1308   85.8654   16.5177 C.2     1  UNL1        0.2671
     24 O          63.1371   86.0846   18.0016 O.2     1  UNL1       -0.2711
     25 N          62.0840   84.9912   15.8932 N.am    1  UNL1       -0.0793
     26 N          62.0775   84.7719   14.4093 N.2     1  UNL1       -0.1605
@<TRIPOS>BOND
     1    10    11    2
     2    11    12    1
     3    12    13   ar
     4    13    14   ar
     5    14    15   ar
     6    15    16   ar
     7    16    17    1
     8    16    18   ar
     9    11     1    1
    10     1     2   ar
    11     2     3   ar
    12     3    19    1
    13    19    20    1
    14    20    21    2
    15    21    22    1
    16    22    23    1
    17    23    24    2
    18    23    25    1
    19    25    26    2
    20     3     4   ar
    21     4     5   ar
    22     5     6   ar
    23     6     7   ar
    24     7     8   ar
    25     8     9   ar
    26    18    12   ar
    27     9     1   ar
    28    26    20    1
    29     9     5   ar
@<TRIPOS>MOLECULE
*****
 26 29 0 0 0
SMALL
GASTEIGER

@<TRIPOS>ATOM
      1 C          61.7489   88.5583   10.9338 C.ar    1  UNL1        0.0731
      2 C          62.5468   87.6967   11.8671 C.ar    1  UNL1        0.0024
      3 C          62.6016   86.2128   11.6556 C.ar    1  UNL1       -0.0159
      4 C          61.8585   85.5903   10.5108 C.ar    1  UNL1       -0.0007
      5 C          61.0607   86.4519    9.5776 C.ar    1  UNL1        0.0375
      6 C          60.2315   86.1246    8.3712 C.ar    1  UNL1        0.0437
      7 C          59.6643   87.4064    7.8371 C.ar    1  UNL1        0.1796
      8 O          60.1429   88.5258    8.7133 O.2     1  UNL1       -0.4503
      9 C          61.0059   87.9359    9.7890 C.ar    1  UNL1        0.1484
     10 O          60.3825   90.7647   11.0561 O.2     1  UNL1       -0.2865
     11 C          61.6941   90.0423   11.1453 C.2     1  UNL1        0.1985
     12 C          62.9509   90.8040   11.4459 C.ar    1  UNL1        0.0399
     13 C          63.6288   91.5898   10.3630 C.ar    1  UNL1        0.0032
     14 C          64.8857   92.3515   10.6637 C.ar    1  UNL1        0.0010
     15 C          65.4644   92.3273   12.0473 C.ar    1  UNL1        0.0114
     16 C          64.7865   91.5414   13.1303 C.ar    1  UNL1        0.0578
     17 CL         65.3653   91.5171   14.5139 Cl      1  UNL1       -0.0822
     18 C          63.5297   90.7797   12.8296 C.ar    1  UNL1        0.0146
     19 C          63.3995   85.3511   12.5890 C.3     1  UNL1        0.0734
     20 C          63.0289   83.9104   12.7811 C.2     1  UNL1        0.0789
     21 C          63.3176   82.9111   11.7003 C.2     1  UNL1        0.0002
     22 C          62.9470   81.4704   11.8924 C.3     1  UNL1        0.1159
     23 C          62.2877   81.0289   13.1654 C.2     1  UNL1        0.2671
     24 O          61.9171   79.5881   13.3576 O.2     1  UNL1       -0.2711
     25 N          61.9991   82.0281   14.2462 N.am    1  UNL1       -0.0793
     26 N          62.3697   83.4688   14.0541 N.2     1  UNL1       -0.1605
@<TRIPOS>BOND
     1    10    11    2
     2    11    12    1
     3    12    13   ar
     4    13    14   ar
     5    14    15   ar
     6    15    16   ar
     7    16    17    1
     8    16    18   ar
     9    11     1    1
    10     1     2   ar
    11     2     3   ar
    12     3    19    1
    13    19    20    1
    14    20    21    2
    15    21    22    1
    16    22    23    1
    17    23    24    2
    18    23    25    1
    19    25    26    2
    20     3     4   ar
    21     4     5   ar
    22     5     6   ar
    23     6     7   ar
    24     7     8   ar
    25     8     9   ar
    26    18    12   ar
    27     9     1   ar
    28    26    20    1
    29     9     5   ar
@<TRIPOS>MOLECULE
*****
 26 29 0 0 0
SMALL
GASTEIGER

@<TRIPOS>ATOM
      1 C          63.6759   90.7539   12.3543 C.ar    1  UNL1        0.0731
      2 C          63.2566   89.9147   13.5247 C.ar    1  UNL1        0.0024
      3 C          63.9149   90.1058   14.8588 C.ar    1  UNL1       -0.0159
      4 C          64.9927   91.1363   15.0226 C.ar    1  UNL1       -0.0007
      5 C          65.4120   91.9755   13.8523 C.ar    1  UNL1        0.0375
      6 C          66.4374   93.0612   13.7119 C.ar    1  UNL1        0.0437
      7 C          66.4128   93.5411   12.2910 C.ar    1  UNL1        0.1796
      8 O          65.3722   92.7520   11.5531 O.2     1  UNL1       -0.4503
      9 C          64.7536   91.7844   12.5181 C.ar    1  UNL1        0.1484
     10 O          63.1002   91.6420    9.9815 O.2     1  UNL1       -0.2865
     11 C          63.0176   90.5628   11.0201 C.2     1  UNL1        0.1985
     12 C          62.2766   89.2925   10.7245 C.ar    1  UNL1        0.0399
     13 C          61.1173   89.3047    9.7728 C.ar    1  UNL1        0.0032
     14 C          60.3763   88.0343    9.4772 C.ar    1  UNL1        0.0010
     15 C          60.7946   86.7520   10.1333 C.ar    1  UNL1        0.0114
     16 C          61.9540   86.7399   11.0851 C.ar    1  UNL1        0.0578
     17 CL         62.3724   85.4575   11.7412 Cl      1  UNL1       -0.0822
     18 C          62.6950   88.0102   11.3807 C.ar    1  UNL1        0.0146
     19 C          63.4956   89.2665   16.0292 C.3     1  UNL1        0.0734
     20 C          63.4651   87.7717   15.9076 C.2     1  UNL1        0.0789
     21 C          64.3765   87.0794   14.9380 C.2     1  UNL1        0.0002
     22 C          64.3460   85.5846   14.8164 C.3     1  UNL1        0.1159
     23 C          63.4042   84.7822   15.6644 C.2     1  UNL1        0.2671
     24 O          63.3736   83.2874   15.5429 O.2     1  UNL1       -0.2711
     25 N          62.4928   85.4745   16.6340 N.am    1  UNL1       -0.0793
     26 N          62.5233   86.9693   16.7556 N.2     1  UNL1       -0.1605
@<TRIPOS>BOND
     1    10    11    2
     2    11    12    1
     3    12    13   ar
     4    13    14   ar
     5    14    15   ar
     6    15    16   ar
     7    16    17    1
     8    16    18   ar
     9    11     1    1
    10     1     2   ar
    11     2     3   ar
    12     3    19    1
    13    19    20    1
    14    20    21    2
    15    21    22    1
    16    22    23    1
    17    23    24    2
    18    23    25    1
    19    25    26    2
    20     3     4   ar
    21     4     5   ar
    22     5     6   ar
    23     6     7   ar
    24     7     8   ar
    25     8     9   ar
    26    18    12   ar
    27     9     1   ar
    28    26    20    1
    29     9     5   ar
