@<TRIPOS>MOLECULE
*****
 21 22 0 0 0
SMALL
GASTEIGER

@<TRIPOS>ATOM
      1 C          63.8241   82.3419   13.7404 C.2     1  UNL1        0.4049
      2 O          64.5682   82.1950   12.4463 O.2     1  UNL1       -0.2262
      3 N          63.6973   83.6910   14.3837 N.am    1  UNL1       -0.2454
      4 C          62.9532   83.8378   15.6778 C.3     1  UNL1        0.1011
      5 C          62.8263   85.1869   16.3211 C.3     1  UNL1        0.0443
      6 C          63.4435   86.3892   15.6703 C.2     1  UNL1       -0.0326
      7 C          63.3167   87.7383   16.3135 C.2     1  UNL1        0.0412
      8 C          64.1876   86.2423   14.3762 C.3     1  UNL1        0.0443
      9 C          64.3145   84.8932   13.7329 C.3     1  UNL1        0.1011
     10 C          63.9339   88.9405   15.6627 C.1     1  UNL1       -0.0583
     11 C          64.5511   90.1428   15.0119 C.1     1  UNL1       -0.0405
     12 C          65.1683   91.3451   14.3611 C.ar    1  UNL1        0.1224
     13 C          66.0179   92.2816   15.1681 C.ar    1  UNL1        0.0276
     14 C          66.6351   93.4838   14.5173 C.ar    1  UNL1        0.0034
     15 C          66.4028   93.7496   13.0594 C.ar    1  UNL1        0.0148
     16 C          65.5533   92.8132   12.2524 C.ar    1  UNL1        0.0600
     17 C          65.3210   93.0790   10.7945 C.3     1  UNL1        0.0521
     18 N          64.9361   91.6109   12.9032 N.ar    1  UNL1       -0.2414
     19 O          63.2069   81.1396   14.3912 O.3     1  UNL1       -0.4345
     20 C          60.6599   80.7216   14.0948 C.3     1  UNL1        0.0513
     21 C          62.0790   80.4173   13.7159 C.3     1  UNL1        0.2102
@<TRIPOS>BOND
     1    20    21    1
     2    21    19    1
     3    19     1    1
     4     1     2    2
     5     1     3   am
     6     3     4    1
     7     4     5    1
     8     5     6    1
     9     6     7    2
    10     7    10    1
    11    10    11    3
    12    11    12    1
    13    12    13   ar
    14    13    14   ar
    15    14    15   ar
    16    15    16   ar
    17    16    17    1
    18    16    18   ar
    19     6     8    1
    20     8     9    1
    21     9     3    1
    22    18    12   ar
@<TRIPOS>MOLECULE
*****
 21 22 0 0 0
SMALL
GASTEIGER

@<TRIPOS>ATOM
      1 C          66.5037   93.6758   13.6772 C.2     1  UNL1        0.4049
      2 O          66.4648   94.6904   12.5731 O.2     1  UNL1       -0.2262
      3 N          65.7282   92.3982   13.5494 N.am    1  UNL1       -0.2454
      4 C          65.7672   91.3836   14.6535 C.3     1  UNL1        0.1011
      5 C          64.9916   90.1060   14.5257 C.3     1  UNL1        0.0443
      6 C          64.1772   89.8430   13.2939 C.2     1  UNL1       -0.0326
      7 C          63.4017   88.5654   13.1661 C.2     1  UNL1        0.0412
      8 C          64.1383   90.8576   12.1898 C.3     1  UNL1        0.0443
      9 C          64.9138   92.1352   12.3176 C.3     1  UNL1        0.1011
     10 C          62.5872   88.3024   11.9343 C.1     1  UNL1       -0.0583
     11 C          61.7727   88.0394   10.7024 C.1     1  UNL1       -0.0405
     12 C          60.9583   87.7764    9.4706 C.ar    1  UNL1        0.1224
     13 C          60.6576   86.3661    9.0572 C.ar    1  UNL1        0.0276
     14 C          59.8432   86.1032    7.8253 C.ar    1  UNL1        0.0034
     15 C          59.3293   87.2504    7.0069 C.ar    1  UNL1        0.0148
     16 C          59.6300   88.6606    7.4202 C.ar    1  UNL1        0.0600
     17 C          59.1161   89.8078    6.6017 C.3     1  UNL1        0.0521
     18 N          60.4444   88.9236    8.6521 N.ar    1  UNL1       -0.2414
     19 O          67.3182   93.9388   14.9090 O.3     1  UNL1       -0.4345
     20 C          68.7986   92.3330   16.3162 C.3     1  UNL1        0.0513
     21 C          68.6164   93.2171   15.1181 C.3     1  UNL1        0.2102
@<TRIPOS>BOND
     1    20    21    1
     2    21    19    1
     3    19     1    1
     4     1     2    2
     5     1     3   am
     6     3     4    1
     7     4     5    1
     8     5     6    1
     9     6     7    2
    10     7    10    1
    11    10    11    3
    12    11    12    1
    13    12    13   ar
    14    13    14   ar
    15    14    15   ar
    16    15    16   ar
    17    16    17    1
    18    16    18   ar
    19     6     8    1
    20     8     9    1
    21     9     3    1
    22    18    12   ar
@<TRIPOS>MOLECULE
*****
 21 22 0 0 0
SMALL
GASTEIGER

@<TRIPOS>ATOM
      1 C          63.2462   81.7109   12.8917 C.2     1  UNL1        0.4049
      2 O          63.9981   81.2404   14.1013 O.2     1  UNL1       -0.2262
      3 N          63.1291   83.1786   12.6053 N.am    1  UNL1       -0.2454
      4 C          62.3772   83.6491   11.3956 C.3     1  UNL1        0.1011
      5 C          62.2601   85.1168   11.1092 C.3     1  UNL1        0.0443
      6 C          62.8950   86.1141   12.0324 C.2     1  UNL1       -0.0326
      7 C          62.7779   87.5818   11.7460 C.2     1  UNL1        0.0412
      8 C          63.6469   85.6436   13.2420 C.3     1  UNL1        0.0443
      9 C          63.7640   84.1759   13.5284 C.3     1  UNL1        0.1011
     10 C          63.4128   88.5791   12.6692 C.1     1  UNL1       -0.0583
     11 C          64.0477   89.5764   13.5924 C.1     1  UNL1       -0.0405
     12 C          64.6826   90.5737   14.5156 C.ar    1  UNL1        0.1224
     13 C          63.9509   91.0322   15.7421 C.ar    1  UNL1        0.0276
     14 C          64.5857   92.0295   16.6653 C.ar    1  UNL1        0.0034
     15 C          65.9523   92.5683   16.3620 C.ar    1  UNL1        0.0148
     16 C          66.6841   92.1099   15.1355 C.ar    1  UNL1        0.0600
     17 C          68.0507   92.6488   14.8322 C.3     1  UNL1        0.0521
     18 N          66.0492   91.1126   14.2122 N.ar    1  UNL1       -0.2414
     19 O          62.6113   80.7136   11.9685 O.3     1  UNL1       -0.4345
     20 C          62.7903   79.2898    9.8027 C.3     1  UNL1        0.0513
     21 C          63.1628   80.5122   10.5882 C.3     1  UNL1        0.2102
@<TRIPOS>BOND
     1    20    21    1
     2    21    19    1
     3    19     1    1
     4     1     2    2
     5     1     3   am
     6     3     4    1
     7     4     5    1
     8     5     6    1
     9     6     7    2
    10     7    10    1
    11    10    11    3
    12    11    12    1
    13    12    13   ar
    14    13    14   ar
    15    14    15   ar
    16    15    16   ar
    17    16    17    1
    18    16    18   ar
    19     6     8    1
    20     8     9    1
    21     9     3    1
    22    18    12   ar
@<TRIPOS>MOLECULE
*****
 21 22 0 0 0
SMALL
GASTEIGER

@<TRIPOS>ATOM
      1 C          63.1126   81.6364   12.1380 C.2     1  UNL1        0.4049
      2 O          63.2798   81.7844   10.6548 O.2     1  UNL1       -0.2262
      3 N          63.2990   82.8233   13.0360 N.am    1  UNL1       -0.2454
      4 C          63.1317   82.6752   14.5193 C.3     1  UNL1        0.1011
      5 C          63.3181   83.8622   15.4173 C.3     1  UNL1        0.0443
      6 C          63.6717   85.1972   14.8320 C.2     1  UNL1       -0.0326
      7 C          63.8581   86.3842   15.7300 C.2     1  UNL1        0.0412
      8 C          63.8390   85.3453   13.3488 C.3     1  UNL1        0.0443
      9 C          63.6526   84.1583   12.4508 C.3     1  UNL1        0.1011
     10 C          64.2118   87.7192   15.1448 C.1     1  UNL1       -0.0583
     11 C          64.5655   89.0543   14.5595 C.1     1  UNL1       -0.0405
     12 C          64.9191   90.3893   13.9742 C.ar    1  UNL1        0.1224
     13 C          64.2940   90.8323   12.6846 C.ar    1  UNL1        0.0276
     14 C          64.6476   92.1673   12.0994 C.ar    1  UNL1        0.0034
     15 C          65.6264   93.0595   12.8037 C.ar    1  UNL1        0.0148
     16 C          66.2515   92.6166   14.0933 C.ar    1  UNL1        0.0600
     17 C          67.2303   93.5087   14.7976 C.3     1  UNL1        0.0521
     18 N          65.8979   91.2815   14.6786 N.ar    1  UNL1       -0.2414
     19 O          62.7589   80.3013   12.7233 O.3     1  UNL1       -0.4345
     20 C          60.5330   80.6152   14.0259 C.3     1  UNL1        0.0513
     21 C          61.9815   80.2260   14.0039 C.3     1  UNL1        0.2102
@<TRIPOS>BOND
     1    20    21    1
     2    21    19    1
     3    19     1    1
     4     1     2    2
     5     1     3   am
     6     3     4    1
     7     4     5    1
     8     5     6    1
     9     6     7    2
    10     7    10    1
    11    10    11    3
    12    11    12    1
    13    12    13   ar
    14    13    14   ar
    15    14    15   ar
    16    15    16   ar
    17    16    17    1
    18    16    18   ar
    19     6     8    1
    20     8     9    1
    21     9     3    1
    22    18    12   ar
@<TRIPOS>MOLECULE
*****
 21 22 0 0 0
SMALL
GASTEIGER

@<TRIPOS>ATOM
      1 C          63.7583   93.7055    0.6447 C.2     1  UNL1        0.4049
      2 O          65.0980   93.0601    0.8414 O.2     1  UNL1       -0.2262
      3 N          62.6032   93.3175    1.5194 N.am    1  UNL1       -0.2454
      4 C          61.2635   93.9629    1.3226 C.3     1  UNL1        0.1011
      5 C          60.1084   93.5749    2.1973 C.3     1  UNL1        0.0443
      6 C          60.2929   92.5416    3.2688 C.2     1  UNL1       -0.0326
      7 C          59.1377   92.1536    4.1435 C.2     1  UNL1        0.0412
      8 C          61.6325   91.8962    3.4655 C.3     1  UNL1        0.0443
      9 C          62.7877   92.2842    2.5908 C.3     1  UNL1        0.1011
     10 C          59.3222   91.1202    5.2149 C.1     1  UNL1       -0.0583
     11 C          59.5068   90.0868    6.2864 C.1     1  UNL1       -0.0405
     12 C          59.6912   89.0534    7.3579 C.ar    1  UNL1        0.1224
     13 C          59.1840   87.6573    7.1487 C.ar    1  UNL1        0.0276
     14 C          59.3685   86.6239    8.2202 C.ar    1  UNL1        0.0034
     15 C          60.0602   86.9866    9.5008 C.ar    1  UNL1        0.0148
     16 C          60.5675   88.3826    9.7100 C.ar    1  UNL1        0.0600
     17 C          61.2592   88.7452   10.9906 C.3     1  UNL1        0.0521
     18 N          60.3830   89.4161    8.6385 N.ar    1  UNL1       -0.2414
     19 O          63.5738   94.7389   -0.4268 O.3     1  UNL1       -0.4345
     20 C          62.3887   93.4033   -2.3140 C.3     1  UNL1        0.0513
     21 C          63.4869   94.3210   -1.8648 C.3     1  UNL1        0.2102
@<TRIPOS>BOND
     1    20    21    1
     2    21    19    1
     3    19     1    1
     4     1     2    2
     5     1     3   am
     6     3     4    1
     7     4     5    1
     8     5     6    1
     9     6     7    2
    10     7    10    1
    11    10    11    3
    12    11    12    1
    13    12    13   ar
    14    13    14   ar
    15    14    15   ar
    16    15    16   ar
    17    16    17    1
    18    16    18   ar
    19     6     8    1
    20     8     9    1
    21     9     3    1
    22    18    12   ar
@<TRIPOS>MOLECULE
*****
 21 22 0 0 0
SMALL
GASTEIGER

@<TRIPOS>ATOM
      1 C          63.1069   82.6536   13.2208 C.2     1  UNL1        0.4049
      2 O          64.1135   82.3444   14.2890 O.2     1  UNL1       -0.2262
      3 N          62.9315   84.0640   12.7411 N.am    1  UNL1       -0.2454
      4 C          61.9249   84.3732   11.6729 C.3     1  UNL1        0.1011
      5 C          61.7496   85.7836   11.1932 C.3     1  UNL1        0.0443
      6 C          62.5808   86.8847   11.7817 C.2     1  UNL1       -0.0326
      7 C          62.4055   88.2951   11.3020 C.2     1  UNL1        0.0412
      8 C          63.5874   86.5755   12.8499 C.3     1  UNL1        0.0443
      9 C          63.7628   85.1652   13.3296 C.3     1  UNL1        0.1011
     10 C          63.2368   89.3963   11.8905 C.1     1  UNL1       -0.0583
     11 C          64.0681   90.4975   12.4790 C.1     1  UNL1       -0.0405
     12 C          64.8993   91.5987   13.0675 C.ar    1  UNL1        0.1224
     13 C          65.3666   91.5074   14.4900 C.ar    1  UNL1        0.0276
     14 C          66.1979   92.6085   15.0785 C.ar    1  UNL1        0.0034
     15 C          66.5619   93.8011   14.2446 C.ar    1  UNL1        0.0148
     16 C          66.0947   93.8924   12.8222 C.ar    1  UNL1        0.0600
     17 C          66.4587   95.0849   11.9883 C.3     1  UNL1        0.0521
     18 N          65.2634   92.7912   12.2336 N.ar    1  UNL1       -0.2414
     19 O          62.2756   81.5525   12.6323 O.3     1  UNL1       -0.4345
     20 C          60.4255   80.6313   14.2067 C.3     1  UNL1        0.0513
     21 C          61.7447   80.4607   13.5134 C.3     1  UNL1        0.2102
@<TRIPOS>BOND
     1    20    21    1
     2    21    19    1
     3    19     1    1
     4     1     2    2
     5     1     3   am
     6     3     4    1
     7     4     5    1
     8     5     6    1
     9     6     7    2
    10     7    10    1
    11    10    11    3
    12    11    12    1
    13    12    13   ar
    14    13    14   ar
    15    14    15   ar
    16    15    16   ar
    17    16    17    1
    18    16    18   ar
    19     6     8    1
    20     8     9    1
    21     9     3    1
    22    18    12   ar
@<TRIPOS>MOLECULE
*****
 21 22 0 0 0
SMALL
GASTEIGER

@<TRIPOS>ATOM
      1 C          63.8434   91.3854   11.7439 C.2     1  UNL1        0.4049
      2 O          63.2417   91.2100   10.3811 O.2     1  UNL1       -0.2262
      3 N          63.9632   90.2099   12.6679 N.am    1  UNL1       -0.2454
      4 C          64.5648   90.3853   14.0307 C.3     1  UNL1        0.1011
      5 C          64.6846   89.2097   14.9546 C.3     1  UNL1        0.0443
      6 C          64.2027   87.8588   14.5158 C.2     1  UNL1       -0.0326
      7 C          64.3225   86.6832   15.4398 C.2     1  UNL1        0.0412
      8 C          63.6011   87.6833   13.1531 C.3     1  UNL1        0.0443
      9 C          63.4813   88.8589   12.2291 C.3     1  UNL1        0.1011
     10 C          63.8407   85.3322   15.0010 C.1     1  UNL1       -0.0583
     11 C          63.3588   83.9812   14.5622 C.1     1  UNL1       -0.0405
     12 C          62.8769   82.6302   14.1234 C.ar    1  UNL1        0.1224
     13 C          63.7957   81.7144   13.3701 C.ar    1  UNL1        0.0276
     14 C          63.3138   80.3634   12.9313 C.ar    1  UNL1        0.0034
     15 C          61.9132   79.9281   13.2457 C.ar    1  UNL1        0.0148
     16 C          60.9945   80.8438   13.9989 C.ar    1  UNL1        0.0600
     17 C          59.5939   80.4086   14.3133 C.3     1  UNL1        0.0521
     18 N          61.4763   82.1949   14.4377 N.ar    1  UNL1       -0.2414
     19 O          64.3252   92.7364   12.1827 O.3     1  UNL1       -0.4345
     20 C          66.4816   92.6944   10.7342 C.3     1  UNL1        0.0513
     21 C          65.7594   93.1246   11.9765 C.3     1  UNL1        0.2102
@<TRIPOS>BOND
     1    20    21    1
     2    21    19    1
     3    19     1    1
     4     1     2    2
     5     1     3   am
     6     3     4    1
     7     4     5    1
     8     5     6    1
     9     6     7    2
    10     7    10    1
    11    10    11    3
    12    11    12    1
    13    12    13   ar
    14    13    14   ar
    15    14    15   ar
    16    15    16   ar
    17    16    17    1
    18    16    18   ar
    19     6     8    1
    20     8     9    1
    21     9     3    1
    22    18    12   ar
@<TRIPOS>MOLECULE
*****
 21 22 0 0 0
SMALL
GASTEIGER

@<TRIPOS>ATOM
      1 C          62.1266   93.3189    1.6804 C.2     1  UNL1        0.4049
      2 O          63.6029   93.0564    1.6418 O.2     1  UNL1       -0.2262
      3 N          61.2708   92.6402    2.7085 N.am    1  UNL1       -0.2454
      4 C          59.7944   92.9027    2.7470 C.3     1  UNL1        0.1011
      5 C          58.9386   92.2240    3.7751 C.3     1  UNL1        0.0443
      6 C          59.5591   91.2829    4.7646 C.2     1  UNL1       -0.0326
      7 C          58.7033   90.6042    5.7927 C.2     1  UNL1        0.0412
      8 C          61.0354   91.0204    4.7261 C.3     1  UNL1        0.0443
      9 C          61.8912   91.6991    3.6980 C.3     1  UNL1        0.1011
     10 C          59.3237   89.6630    6.7822 C.1     1  UNL1       -0.0583
     11 C          59.9442   88.7218    7.7718 C.1     1  UNL1       -0.0405
     12 C          60.5647   87.7807    8.7613 C.ar    1  UNL1        0.1224
     13 C          60.1947   87.8671   10.2125 C.ar    1  UNL1        0.0276
     14 C          60.8152   86.9259   11.2020 C.ar    1  UNL1        0.0034
     15 C          61.8056   85.8983   10.7404 C.ar    1  UNL1        0.0148
     16 C          62.1756   85.8119    9.2894 C.ar    1  UNL1        0.0600
     17 C          63.1661   84.7843    8.8278 C.3     1  UNL1        0.0521
     18 N          61.5551   86.7531    8.2998 N.ar    1  UNL1       -0.2414
     19 O          61.5061   94.2600    0.6909 O.3     1  UNL1       -0.4345
     20 C          60.1469   92.7754   -0.9518 C.3     1  UNL1        0.0513
     21 C          61.2180   93.7965   -0.7063 C.3     1  UNL1        0.2102
@<TRIPOS>BOND
     1    20    21    1
     2    21    19    1
     3    19     1    1
     4     1     2    2
     5     1     3   am
     6     3     4    1
     7     4     5    1
     8     5     6    1
     9     6     7    2
    10     7    10    1
    11    10    11    3
    12    11    12    1
    13    12    13   ar
    14    13    14   ar
    15    14    15   ar
    16    15    16   ar
    17    16    17    1
    18    16    18   ar
    19     6     8    1
    20     8     9    1
    21     9     3    1
    22    18    12   ar
@<TRIPOS>MOLECULE
*****
 21 22 0 0 0
SMALL
GASTEIGER

@<TRIPOS>ATOM
      1 C          60.6460   93.1531    2.7638 C.2     1  UNL1        0.4049
      2 O          62.0934   93.1284    2.3712 O.2     1  UNL1       -0.2262
      3 N          60.1334   92.1969    3.7997 N.am    1  UNL1       -0.2454
      4 C          58.6859   92.2216    4.1923 C.3     1  UNL1        0.1011
      5 C          58.1734   91.2654    5.2282 C.3     1  UNL1        0.0443
      6 C          59.1083   90.2846    5.8715 C.2     1  UNL1       -0.0326
      7 C          58.5958   89.3284    6.9074 C.2     1  UNL1        0.0412
      8 C          60.5558   90.2599    5.4789 C.3     1  UNL1        0.0443
      9 C          61.0683   91.2161    4.4430 C.3     1  UNL1        0.1011
     10 C          59.5307   88.3476    7.5507 C.1     1  UNL1       -0.0583
     11 C          60.4656   87.3667    8.1940 C.1     1  UNL1       -0.0405
     12 C          61.4006   86.3859    8.8373 C.ar    1  UNL1        0.1224
     13 C          62.3427   85.5820    7.9911 C.ar    1  UNL1        0.0276
     14 C          63.2776   84.6011    8.6344 C.ar    1  UNL1        0.0034
     15 C          63.2705   84.4242   10.1239 C.ar    1  UNL1        0.0148
     16 C          62.3284   85.2281   10.9701 C.ar    1  UNL1        0.0600
     17 C          62.3212   85.0512   12.4596 C.3     1  UNL1        0.0521
     18 N          61.3934   86.2090   10.3268 N.ar    1  UNL1       -0.2414
     19 O          59.7110   94.1339    2.1205 O.3     1  UNL1       -0.4345
     20 C          59.7422   95.0554   -0.3084 C.3     1  UNL1        0.0513
     21 C          59.3524   93.9885    0.6713 C.3     1  UNL1        0.2102
@<TRIPOS>BOND
     1    20    21    1
     2    21    19    1
     3    19     1    1
     4     1     2    2
     5     1     3   am
     6     3     4    1
     7     4     5    1
     8     5     6    1
     9     6     7    2
    10     7    10    1
    11    10    11    3
    12    11    12    1
    13    12    13   ar
    14    13    14   ar
    15    14    15   ar
    16    15    16   ar
    17    16    17    1
    18    16    18   ar
    19     6     8    1
    20     8     9    1
    21     9     3    1
    22    18    12   ar
