@<TRIPOS>MOLECULE
*****
 25 27 0 0 0
SMALL
GASTEIGER

@<TRIPOS>ATOM
      1 C          65.2304   91.7358   13.1417 C.ar    1  UNL1        0.1075
      2 C          66.5415   92.3981   12.8375 C.ar    1  UNL1        0.1278
      3 N          67.2430   92.6563   14.1380 N.ar    1  UNL1       -0.0772
      4 O          66.3655   92.1536   15.2459 O.2     1  UNL1       -0.3576
      5 C          65.1217   91.5847   14.6301 C.ar    1  UNL1        0.1591
      6 C          63.9711   90.9722   15.3724 C.3     1  UNL1        0.0755
      7 C          67.0599   92.7418   11.4727 C.ar    1  UNL1        0.0316
      8 C          67.9031   91.7553   10.7203 C.ar    1  UNL1        0.0024
      9 C          68.4216   92.0991    9.3553 C.ar    1  UNL1        0.0001
     10 C          68.0969   93.4292    8.7428 C.ar    1  UNL1        0.0009
     11 C          67.2538   94.4157    9.4950 C.ar    1  UNL1        0.0114
     12 C          66.7353   94.0719   10.8600 C.ar    1  UNL1        0.0592
     13 CL         65.8921   95.0584   11.6124 Cl      1  UNL1       -0.0822
     14 N          63.5508   89.9586   12.2638 N.am    1  UNL1       -0.2533
     15 C          63.9167   89.0513   13.4008 C.3     1  UNL1        0.1203
     16 C          64.2076   91.3009   12.1343 C.2     1  UNL1        0.2571
     17 O          63.8417   92.2084   10.9973 O.2     1  UNL1       -0.2694
     18 C          59.4598   88.2191    8.2342 C.3     1  UNL1        0.0319
     19 C          60.4825   88.6540    9.2416 C.ar    1  UNL1       -0.0112
     20 C          60.3405   89.9788    9.9306 C.ar    1  UNL1       -0.0021
     21 C          61.3633   90.4137   10.9380 C.ar    1  UNL1        0.0146
     22 C          62.5280   89.5238   11.2564 C.ar    1  UNL1        0.0550
     23 C          62.6700   88.1990   10.5674 C.ar    1  UNL1        0.0260
     24 C          61.6472   87.7641    9.5600 C.ar    1  UNL1        0.0549
     25 CL         61.7893   86.4393    8.8710 Cl      1  UNL1       -0.0825
@<TRIPOS>BOND
     1    18    19    1
     2    19    20   ar
     3    20    21   ar
     4    21    22   ar
     5    22    14    1
     6    14    15    1
     7    14    16   am
     8    16    17    2
     9    16     1    1
    10     1     2   ar
    11     2     7    1
    12     7     8   ar
    13     8     9   ar
    14     9    10   ar
    15    10    11   ar
    16    11    12   ar
    17    12    13    1
    18     2     3   ar
    19     3     4   ar
    20     4     5   ar
    21     5     6    1
    22    22    23   ar
    23    23    24   ar
    24    24    25    1
    25    24    19   ar
    26     5     1   ar
    27    12     7   ar
@<TRIPOS>MOLECULE
*****
 25 27 0 0 0
SMALL
GASTEIGER

@<TRIPOS>ATOM
      1 C          63.8354   89.8437   14.8075 C.ar    1  UNL1        0.1075
      2 C          64.5471   91.1573   14.6728 C.ar    1  UNL1        0.1278
      3 N          64.3968   91.9007   15.9670 N.ar    1  UNL1       -0.0772
      4 O          63.5923   91.0466   16.9015 O.2     1  UNL1       -0.3576
      5 C          63.2453   89.7753   16.1848 C.ar    1  UNL1        0.1591
      6 C          62.4482   88.6358   16.7469 C.3     1  UNL1        0.0755
      7 C          65.2803   91.6423   13.4575 C.ar    1  UNL1        0.0316
      8 C          64.5248   91.9490   12.1984 C.ar    1  UNL1        0.0024
      9 C          65.2581   92.4340   10.9830 C.ar    1  UNL1        0.0001
     10 C          66.7468   92.6123   11.0267 C.ar    1  UNL1        0.0009
     11 C          67.5023   92.3057   12.2857 C.ar    1  UNL1        0.0114
     12 C          66.7690   91.8207   13.5010 C.ar    1  UNL1        0.0592
     13 CL         67.5246   91.5140   14.7602 Cl      1  UNL1       -0.0822
     14 N          62.7577   88.9445   12.6212 N.am    1  UNL1       -0.2533
     15 C          61.8868   90.1636   12.5491 C.3     1  UNL1        0.1203
     16 C          63.7320   88.7846   13.7504 C.2     1  UNL1        0.2571
     17 O          64.6030   87.5654   13.8225 O.2     1  UNL1       -0.2694
     18 C          62.3441   84.7079    8.3928 C.3     1  UNL1        0.0319
     19 C          62.4475   85.7670    9.4499 C.ar    1  UNL1       -0.0112
     20 C          62.3208   87.2142    9.0765 C.ar    1  UNL1       -0.0021
     21 C          62.4242   88.2734   10.1336 C.ar    1  UNL1        0.0146
     22 C          62.6543   87.8854   11.5641 C.ar    1  UNL1        0.0550
     23 C          62.7810   86.4381   11.9375 C.ar    1  UNL1        0.0260
     24 C          62.6776   85.3790   10.8804 C.ar    1  UNL1        0.0549
     25 CL         62.8043   83.9317   11.2539 Cl      1  UNL1       -0.0825
@<TRIPOS>BOND
     1    18    19    1
     2    19    20   ar
     3    20    21   ar
     4    21    22   ar
     5    22    14    1
     6    14    15    1
     7    14    16   am
     8    16    17    2
     9    16     1    1
    10     1     2   ar
    11     2     7    1
    12     7     8   ar
    13     8     9   ar
    14     9    10   ar
    15    10    11   ar
    16    11    12   ar
    17    12    13    1
    18     2     3   ar
    19     3     4   ar
    20     4     5   ar
    21     5     6    1
    22    22    23   ar
    23    23    24   ar
    24    24    25    1
    25    24    19   ar
    26     5     1   ar
    27    12     7   ar
@<TRIPOS>MOLECULE
*****
 25 27 0 0 0
SMALL
GASTEIGER

@<TRIPOS>ATOM
      1 C          60.7437   87.7738    9.3215 C.ar    1  UNL1        0.1075
      2 C          61.0281   89.2431    9.4244 C.ar    1  UNL1        0.1278
      3 N          60.2936   89.9360    8.3151 N.ar    1  UNL1       -0.0772
      4 O          59.5554   88.8951    7.5267 O.2     1  UNL1       -0.3576
      5 C          59.8336   87.5588    8.1487 C.ar    1  UNL1        0.1591
      6 C          59.2961   86.2391    7.6801 C.3     1  UNL1        0.0755
      7 C          61.8946   89.9033   10.4554 C.ar    1  UNL1        0.0316
      8 C          63.2384   90.4466   10.0692 C.ar    1  UNL1        0.0024
      9 C          64.1050   91.1069   11.1003 C.ar    1  UNL1        0.0001
     10 C          63.6277   91.2240   12.5175 C.ar    1  UNL1        0.0009
     11 C          62.2839   90.6808   12.9037 C.ar    1  UNL1        0.0114
     12 C          61.4174   90.0205   11.8726 C.ar    1  UNL1        0.0592
     13 CL         60.0735   89.4773   12.2588 Cl      1  UNL1       -0.0822
     14 N          62.2926   85.7273    9.7249 N.am    1  UNL1       -0.2533
     15 C          62.7768   85.8145    8.3079 C.3     1  UNL1        0.1203
     16 C          61.2761   86.7069   10.2317 C.2     1  UNL1        0.2571
     17 O          60.7918   86.6197   11.6487 O.2     1  UNL1       -0.2694
     18 C          64.4220   81.4598   13.3656 C.3     1  UNL1        0.0319
     19 C          63.8896   82.5267   12.4554 C.ar    1  UNL1       -0.0112
     20 C          64.2504   82.5191   10.9995 C.ar    1  UNL1       -0.0021
     21 C          63.7180   83.5859   10.0893 C.ar    1  UNL1        0.0146
     22 C          62.8250   84.6604   10.6350 C.ar    1  UNL1        0.0550
     23 C          62.4642   84.6680   12.0910 C.ar    1  UNL1        0.0260
     24 C          62.9966   83.6012   13.0011 C.ar    1  UNL1        0.0549
     25 CL         62.6358   83.6088   14.4571 Cl      1  UNL1       -0.0825
@<TRIPOS>BOND
     1    18    19    1
     2    19    20   ar
     3    20    21   ar
     4    21    22   ar
     5    22    14    1
     6    14    15    1
     7    14    16   am
     8    16    17    2
     9    16     1    1
    10     1     2   ar
    11     2     7    1
    12     7     8   ar
    13     8     9   ar
    14     9    10   ar
    15    10    11   ar
    16    11    12   ar
    17    12    13    1
    18     2     3   ar
    19     3     4   ar
    20     4     5   ar
    21     5     6    1
    22    22    23   ar
    23    23    24   ar
    24    24    25    1
    25    24    19   ar
    26     5     1   ar
    27    12     7   ar
@<TRIPOS>MOLECULE
*****
 25 27 0 0 0
SMALL
GASTEIGER

@<TRIPOS>ATOM
      1 C          61.3863   87.9562   10.4972 C.ar    1  UNL1        0.1075
      2 C          61.3817   86.5463    9.9849 C.ar    1  UNL1        0.1278
      3 N          60.2695   86.4195    8.9864 N.ar    1  UNL1       -0.0772
      4 O          59.5867   87.7510    8.8816 O.2     1  UNL1       -0.3576
      5 C          60.2769   88.7007    9.8153 C.ar    1  UNL1        0.1591
      6 C          59.9203   90.1418   10.0294 C.3     1  UNL1        0.0755
      7 C          62.3239   85.4549   10.3985 C.ar    1  UNL1        0.0316
      8 C          62.4190   85.0527   11.8405 C.ar    1  UNL1        0.0024
      9 C          63.3612   83.9613   12.2541 C.ar    1  UNL1        0.0001
     10 C          64.2083   83.2721   11.2258 C.ar    1  UNL1        0.0009
     11 C          64.1133   83.6743    9.7839 C.ar    1  UNL1        0.0114
     12 C          63.1710   84.7657    9.3703 C.ar    1  UNL1        0.0592
     13 CL         63.0759   85.1679    7.9283 Cl      1  UNL1       -0.0822
     14 N          62.9625   89.8649   11.2859 N.am    1  UNL1       -0.2533
     15 C          62.6436   90.6418   10.0431 C.3     1  UNL1        0.1203
     16 C          62.3338   88.5221   11.5130 C.2     1  UNL1        0.2571
     17 O          62.6527   87.7452   12.7559 O.2     1  UNL1       -0.2694
     18 C          66.7527   92.1287   15.3491 C.3     1  UNL1        0.0319
     19 C          65.8052   91.5627   14.3333 C.ar    1  UNL1       -0.0112
     20 C          65.0660   90.2904   14.6242 C.ar    1  UNL1       -0.0021
     21 C          64.1184   89.7245   13.6084 C.ar    1  UNL1        0.0146
     22 C          63.9101   90.4309   12.3017 C.ar    1  UNL1        0.0550
     23 C          64.6493   91.7032   12.0108 C.ar    1  UNL1        0.0260
     24 C          65.5968   92.2691   13.0266 C.ar    1  UNL1        0.0549
     25 CL         66.3360   93.5415   12.7356 Cl      1  UNL1       -0.0825
@<TRIPOS>BOND
     1    18    19    1
     2    19    20   ar
     3    20    21   ar
     4    21    22   ar
     5    22    14    1
     6    14    15    1
     7    14    16   am
     8    16    17    2
     9    16     1    1
    10     1     2   ar
    11     2     7    1
    12     7     8   ar
    13     8     9   ar
    14     9    10   ar
    15    10    11   ar
    16    11    12   ar
    17    12    13    1
    18     2     3   ar
    19     3     4   ar
    20     4     5   ar
    21     5     6    1
    22    22    23   ar
    23    23    24   ar
    24    24    25    1
    25    24    19   ar
    26     5     1   ar
    27    12     7   ar
@<TRIPOS>MOLECULE
*****
 25 27 0 0 0
SMALL
GASTEIGER

@<TRIPOS>ATOM
      1 C          64.7059   91.4653   13.8360 C.ar    1  UNL1        0.1075
      2 C          65.8739   92.3593   13.5415 C.ar    1  UNL1        0.1278
      3 N          66.3856   92.8977   14.8446 N.ar    1  UNL1       -0.0772
      4 O          65.5340   92.3366   15.9446 O.2     1  UNL1       -0.3576
      5 C          64.4958   91.4513   15.3212 C.ar    1  UNL1        0.1591
      6 C          63.4341   90.6863   16.0543 C.3     1  UNL1        0.0755
      7 C          66.4320   92.6617   12.1825 C.ar    1  UNL1        0.0316
      8 C          65.6552   93.5172   11.2260 C.ar    1  UNL1        0.0024
      9 C          66.2134   93.8196    9.8669 C.ar    1  UNL1        0.0001
     10 C          67.5483   93.2664    9.4643 C.ar    1  UNL1        0.0009
     11 C          68.3250   92.4109   10.4207 C.ar    1  UNL1        0.0114
     12 C          67.7669   92.1086   11.7798 C.ar    1  UNL1        0.0592
     13 CL         68.5436   91.2530   12.7363 Cl      1  UNL1       -0.0822
     14 N          63.7222   89.2314   12.9461 N.am    1  UNL1       -0.2533
     15 C          64.3682   88.4946   14.0817 C.3     1  UNL1        0.1203
     16 C          63.8910   90.7168   12.8232 C.2     1  UNL1        0.2571
     17 O          63.2450   91.4538   11.6876 O.2     1  UNL1       -0.2694
     18 C          60.4627   86.2374    8.8949 C.3     1  UNL1        0.0319
     19 C          61.2776   86.9859    9.9077 C.ar    1  UNL1       -0.0112
     20 C          62.0595   86.2350   10.9444 C.ar    1  UNL1       -0.0021
     21 C          62.8743   86.9835   11.9571 C.ar    1  UNL1        0.0146
     22 C          62.9073   88.4829   11.9333 C.ar    1  UNL1        0.0550
     23 C          62.1254   89.2339   10.8966 C.ar    1  UNL1        0.0260
     24 C          61.3105   88.4854    9.8838 C.ar    1  UNL1        0.0549
     25 CL         60.5286   89.2363    8.8471 Cl      1  UNL1       -0.0825
@<TRIPOS>BOND
     1    18    19    1
     2    19    20   ar
     3    20    21   ar
     4    21    22   ar
     5    22    14    1
     6    14    15    1
     7    14    16   am
     8    16    17    2
     9    16     1    1
    10     1     2   ar
    11     2     7    1
    12     7     8   ar
    13     8     9   ar
    14     9    10   ar
    15    10    11   ar
    16    11    12   ar
    17    12    13    1
    18     2     3   ar
    19     3     4   ar
    20     4     5   ar
    21     5     6    1
    22    22    23   ar
    23    23    24   ar
    24    24    25    1
    25    24    19   ar
    26     5     1   ar
    27    12     7   ar
@<TRIPOS>MOLECULE
*****
 25 27 0 0 0
SMALL
GASTEIGER

@<TRIPOS>ATOM
      1 C          61.2200   87.7047    9.8851 C.ar    1  UNL1        0.1075
      2 C          61.7225   89.1041   10.0835 C.ar    1  UNL1        0.1278
      3 N          61.1340   89.9651    9.0052 N.ar    1  UNL1       -0.0772
      4 O          60.2680   89.0978    8.1405 O.2     1  UNL1       -0.3576
      5 C          60.3212   87.7008    8.6842 C.ar    1  UNL1        0.1591
      6 C          59.6017   86.5092    8.1253 C.3     1  UNL1        0.0755
      7 C          62.6503   89.5621   11.1693 C.ar    1  UNL1        0.0316
      8 C          62.8689   88.7043   12.3804 C.ar    1  UNL1        0.0024
      9 C          63.7968   89.1624   13.4663 C.ar    1  UNL1        0.0001
     10 C          64.5061   90.4782   13.3412 C.ar    1  UNL1        0.0009
     11 C          64.2875   91.3359   12.1303 C.ar    1  UNL1        0.0114
     12 C          63.3596   90.8779   11.0444 C.ar    1  UNL1        0.0592
     13 CL         63.1410   91.7357    9.8334 Cl      1  UNL1       -0.0822
     14 N          62.5148   85.4793   10.2329 N.am    1  UNL1       -0.2533
     15 C          63.1350   85.6280    8.8752 C.3     1  UNL1        0.1203
     16 C          61.5574   86.5176   10.7378 C.2     1  UNL1        0.2571
     17 O          60.9371   86.3690   12.0955 O.2     1  UNL1       -0.2694
     18 C          63.8641   80.7311   13.6437 C.3     1  UNL1        0.0319
     19 C          63.5268   81.9181   12.7910 C.ar    1  UNL1       -0.0112
     20 C          63.6143   83.3019   13.3633 C.ar    1  UNL1       -0.0021
     21 C          63.2770   84.4889   12.5106 C.ar    1  UNL1        0.0146
     22 C          62.8522   84.2922   11.0856 C.ar    1  UNL1        0.0550
     23 C          62.7646   82.9085   10.5133 C.ar    1  UNL1        0.0260
     24 C          63.1020   81.7215   11.3660 C.ar    1  UNL1        0.0549
     25 CL         63.0144   80.3377   10.7936 Cl      1  UNL1       -0.0825
@<TRIPOS>BOND
     1    18    19    1
     2    19    20   ar
     3    20    21   ar
     4    21    22   ar
     5    22    14    1
     6    14    15    1
     7    14    16   am
     8    16    17    2
     9    16     1    1
    10     1     2   ar
    11     2     7    1
    12     7     8   ar
    13     8     9   ar
    14     9    10   ar
    15    10    11   ar
    16    11    12   ar
    17    12    13    1
    18     2     3   ar
    19     3     4   ar
    20     4     5   ar
    21     5     6    1
    22    22    23   ar
    23    23    24   ar
    24    24    25    1
    25    24    19   ar
    26     5     1   ar
    27    12     7   ar
@<TRIPOS>MOLECULE
*****
 25 27 0 0 0
SMALL
GASTEIGER

@<TRIPOS>ATOM
      1 C          61.3918   93.1723    2.2641 C.ar    1  UNL1        0.1075
      2 C          62.8487   93.1203    1.9106 C.ar    1  UNL1        0.1278
      3 N          63.5173   92.1526    2.8416 N.ar    1  UNL1       -0.0772
      4 O          62.4737   91.6065    3.7704 O.2     1  UNL1       -0.3576
      5 C          61.1601   92.2367    3.4135 C.ar    1  UNL1        0.1591
      6 C          59.8455   91.9770    4.0876 C.3     1  UNL1        0.0755
      7 C          63.5192   93.8992    0.8181 C.ar    1  UNL1        0.0316
      8 C          63.2124   93.5933   -0.6181 C.ar    1  UNL1        0.0024
      9 C          63.8829   94.3722   -1.7106 C.ar    1  UNL1        0.0001
     10 C          64.8602   95.4571   -1.3671 C.ar    1  UNL1        0.0009
     11 C          65.1670   95.7630    0.0689 C.ar    1  UNL1        0.0114
     12 C          64.4965   94.9840    1.1615 C.ar    1  UNL1        0.0592
     13 CL         64.8034   95.2899    2.5976 Cl      1  UNL1       -0.0822
     14 N          59.6454   93.4952    0.3679 N.am    1  UNL1       -0.2533
     15 C          59.9831   92.1380   -0.1742 C.3     1  UNL1        0.1203
     16 C          60.3497   94.0123    1.5871 C.2     1  UNL1        0.2571
     17 O          60.0120   95.3696    2.1293 O.2     1  UNL1       -0.2694
     18 C          55.4770   96.8554   -2.3402 C.3     1  UNL1        0.0319
     19 C          56.5191   96.0153   -1.6631 C.ar    1  UNL1       -0.0112
     20 C          57.8083   96.6370   -1.2144 C.ar    1  UNL1       -0.0021
     21 C          58.8504   95.7970   -0.5374 C.ar    1  UNL1        0.0146
     22 C          58.6033   94.3352   -0.3091 C.ar    1  UNL1        0.0550
     23 C          57.3141   93.7135   -0.7578 C.ar    1  UNL1        0.0260
     24 C          56.2720   94.5536   -1.4348 C.ar    1  UNL1        0.0549
     25 CL         54.9827   93.9318   -1.8836 Cl      1  UNL1       -0.0825
@<TRIPOS>BOND
     1    18    19    1
     2    19    20   ar
     3    20    21   ar
     4    21    22   ar
     5    22    14    1
     6    14    15    1
     7    14    16   am
     8    16    17    2
     9    16     1    1
    10     1     2   ar
    11     2     7    1
    12     7     8   ar
    13     8     9   ar
    14     9    10   ar
    15    10    11   ar
    16    11    12   ar
    17    12    13    1
    18     2     3   ar
    19     3     4   ar
    20     4     5   ar
    21     5     6    1
    22    22    23   ar
    23    23    24   ar
    24    24    25    1
    25    24    19   ar
    26     5     1   ar
    27    12     7   ar
@<TRIPOS>MOLECULE
*****
 25 27 0 0 0
SMALL
GASTEIGER

@<TRIPOS>ATOM
      1 C          61.7528   93.9247    0.3923 C.ar    1  UNL1        0.1075
      2 C          63.1666   93.7745   -0.0861 C.ar    1  UNL1        0.1278
      3 N          63.9837   93.2281    1.0470 N.ar    1  UNL1       -0.0772
      4 O          63.0750   93.0406    2.2256 O.2     1  UNL1       -0.3576
      5 C          61.6963   93.4711    1.8210 C.ar    1  UNL1        0.1591
      6 C          60.4753   93.4514    2.6921 C.3     1  UNL1        0.0755
      7 C          63.6740   94.1116   -1.4567 C.ar    1  UNL1        0.0316
      8 C          63.4294   93.1710   -2.5994 C.ar    1  UNL1        0.0024
      9 C          63.9369   93.5080   -3.9701 C.ar    1  UNL1        0.0001
     10 C          64.6890   94.7857   -4.1982 C.ar    1  UNL1        0.0009
     11 C          64.9336   95.7262   -3.0557 C.ar    1  UNL1        0.0114
     12 C          64.4261   95.3892   -1.6850 C.ar    1  UNL1        0.0592
     13 CL         64.6708   96.3298   -0.5423 Cl      1  UNL1       -0.0822
     14 N          59.5406   93.4907   -0.8991 N.am    1  UNL1       -0.2533
     15 C          59.6374   92.0297   -0.5739 C.3     1  UNL1        0.1203
     16 C          60.5983   94.4382   -0.4160 C.2     1  UNL1        0.2571
     17 O          60.5016   95.8994   -0.7413 O.2     1  UNL1       -0.2694
     18 C          54.9228   95.5450   -4.1326 C.3     1  UNL1        0.0319
     19 C          56.0772   95.0314   -3.3242 C.ar    1  UNL1       -0.0112
     20 C          57.1893   94.2824   -3.9966 C.ar    1  UNL1       -0.0021
     21 C          58.3438   93.7688   -3.1883 C.ar    1  UNL1        0.0146
     22 C          58.3862   94.0043   -1.7075 C.ar    1  UNL1        0.0550
     23 C          57.2741   94.7534   -1.0351 C.ar    1  UNL1        0.0260
     24 C          56.1196   95.2669   -1.8435 C.ar    1  UNL1        0.0549
     25 CL         55.0075   96.0161   -1.1710 Cl      1  UNL1       -0.0825
@<TRIPOS>BOND
     1    18    19    1
     2    19    20   ar
     3    20    21   ar
     4    21    22   ar
     5    22    14    1
     6    14    15    1
     7    14    16   am
     8    16    17    2
     9    16     1    1
    10     1     2   ar
    11     2     7    1
    12     7     8   ar
    13     8     9   ar
    14     9    10   ar
    15    10    11   ar
    16    11    12   ar
    17    12    13    1
    18     2     3   ar
    19     3     4   ar
    20     4     5   ar
    21     5     6    1
    22    22    23   ar
    23    23    24   ar
    24    24    25    1
    25    24    19   ar
    26     5     1   ar
    27    12     7   ar
@<TRIPOS>MOLECULE
*****
 25 27 0 0 0
SMALL
GASTEIGER

@<TRIPOS>ATOM
      1 C          61.1641   87.8112    9.1632 C.ar    1  UNL1        0.1075
      2 C          61.1163   86.3136    9.0932 C.ar    1  UNL1        0.1278
      3 N          59.9124   85.9255    8.2869 N.ar    1  UNL1       -0.0772
      4 O          59.2162   87.1833    7.8586 O.2     1  UNL1       -0.3576
      5 C          59.9898   88.3487    8.4002 C.ar    1  UNL1        0.1591
      6 C          59.6490   89.7972    8.2118 C.3     1  UNL1        0.0755
      7 C          62.0996   85.3698    9.7195 C.ar    1  UNL1        0.0316
      8 C          63.0046   84.5454    8.8526 C.ar    1  UNL1        0.0024
      9 C          63.9880   83.6016    9.4789 C.ar    1  UNL1        0.0001
     10 C          64.0663   83.4822   10.9721 C.ar    1  UNL1        0.0009
     11 C          63.1614   84.3065   11.8390 C.ar    1  UNL1        0.0114
     12 C          62.1781   85.2503   11.2127 C.ar    1  UNL1        0.0592
     13 CL         61.2730   86.0747   12.0796 Cl      1  UNL1       -0.0822
     14 N          61.8272   89.4413   11.0746 N.am    1  UNL1       -0.2533
     15 C          60.4110   89.4378   11.5688 C.3     1  UNL1        0.1203
     16 C          62.2038   88.6280    9.8718 C.2     1  UNL1        0.2571
     17 O          63.6201   88.6314    9.3775 O.2     1  UNL1       -0.2694
     18 C          65.9857   92.7082   13.9089 C.3     1  UNL1        0.0319
     19 C          64.9461   91.8915   13.2003 C.ar    1  UNL1       -0.0112
     20 C          64.7107   92.0876   11.7320 C.ar    1  UNL1       -0.0021
     21 C          63.6711   91.2708   11.0234 C.ar    1  UNL1        0.0146
     22 C          62.8668   90.2580   11.7832 C.ar    1  UNL1        0.0550
     23 C          63.1022   90.0619   13.2515 C.ar    1  UNL1        0.0260
     24 C          64.1419   90.8786   13.9601 C.ar    1  UNL1        0.0549
     25 CL         64.3772   90.6825   15.4285 Cl      1  UNL1       -0.0825
@<TRIPOS>BOND
     1    18    19    1
     2    19    20   ar
     3    20    21   ar
     4    21    22   ar
     5    22    14    1
     6    14    15    1
     7    14    16   am
     8    16    17    2
     9    16     1    1
    10     1     2   ar
    11     2     7    1
    12     7     8   ar
    13     8     9   ar
    14     9    10   ar
    15    10    11   ar
    16    11    12   ar
    17    12    13    1
    18     2     3   ar
    19     3     4   ar
    20     4     5   ar
    21     5     6    1
    22    22    23   ar
    23    23    24   ar
    24    24    25    1
    25    24    19   ar
    26     5     1   ar
    27    12     7   ar
