@<TRIPOS>MOLECULE
*****
 37 40 0 0 0
SMALL
GASTEIGER

@<TRIPOS>ATOM
      1 N          65.4479   92.2513   13.2138 N.ar    1  UNL1       -0.2340
      2 C          64.8541   92.0387   11.8528 C.ar    1  UNL1        0.3338
      3 O          65.4133   92.7693   10.6681 O.2     1  UNL1       -0.2463
      4 N          63.7010   91.0957   11.6766 N.ar    1  UNL1       -0.2776
      5 C          63.1417   90.3652   12.8613 C.ar    1  UNL1        0.2175
      6 N          61.9887   89.4221   12.6851 N.2     1  UNL1       -0.2128
      7 N          63.7356   90.5777   14.2222 N.ar    1  UNL1       -0.2479
      8 C          64.8887   91.5208   14.3985 C.ar    1  UNL1        0.3373
      9 O          65.4825   91.7333   15.7595 O.2     1  UNL1       -0.2461
     10 H          63.3112   90.9562   10.7834 H       1  UNL1        0.1733
     11 C          61.3948   89.2096   11.3242 C.ar    1  UNL1        0.0846
     12 C          60.4469   90.2221   10.7530 C.ar    1  UNL1        0.0223
     13 C          59.8531   90.0095    9.3920 C.ar    1  UNL1        0.0391
     14 C          60.2071   88.7845    8.6023 C.ar    1  UNL1        0.1473
     15 C          61.1551   87.7719    9.1734 C.ar    1  UNL1        0.0391
     16 C          61.7489   87.9845   10.5344 C.ar    1  UNL1        0.0223
     17 O          59.6133   88.5719    7.2413 O.3     1  UNL1       -0.4361
     18 C          59.3918   89.7415    6.3286 C.ar    1  UNL1        0.2297
     19 C          60.5592   90.3956    5.6510 C.ar    1  UNL1        0.0581
     20 C          60.3377   91.5653    4.7383 C.ar    1  UNL1        0.0064
     21 C          58.9488   92.0807    4.5033 C.ar    1  UNL1        0.0209
     22 C          57.7814   91.4265    5.1810 C.ar    1  UNL1        0.1021
     23 N          58.0029   90.2569    6.0936 N.ar    1  UNL1       -0.2098
     24 C          66.6010   93.1943   13.3900 C.3     1  UNL1        0.1205
     25 C          68.7714   91.8088   13.0438 C.3     1  UNL1        0.0079
     26 C          67.9137   92.6855   13.9075 C.3     1  UNL1        0.0594
     27 C          68.3688   93.0533   15.2886 C.2     1  UNL1        0.0519
     28 O          68.7815   91.9809   16.2528 O.co2   1  UNL1       -0.5491
     29 O          68.4111   94.4936   15.7057 O.co2   1  UNL1       -0.5491
     30 C          63.1763   89.8472   15.4070 C.3     1  UNL1        0.1401
     31 C          63.4385   88.3800   15.5757 C.ar    1  UNL1        0.0007
     32 C          62.8826   87.6503   16.7625 C.ar    1  UNL1       -0.0015
     33 C          63.1448   86.1830   16.9311 C.ar    1  UNL1        0.0111
     34 C          63.9629   85.4455   15.9129 C.ar    1  UNL1        0.0577
     35 CL         64.2251   83.9782   16.0816 Cl      1  UNL1       -0.0822
     36 C          64.5188   86.1752   14.7261 C.ar    1  UNL1        0.0111
     37 C          64.2567   87.6424   14.5575 C.ar    1  UNL1       -0.0015
@<TRIPOS>UNITY_ATOM_ATTR
28 1
charge -1
@<TRIPOS>BOND
     1    26    25    1
     2    26    24    1
     3    24     1    1
     4     1     2   ar
     5     2     3    2
     6     2     4   ar
     7     4     5   ar
     8     5     6    2
     9     6    11    1
    10    11    12   ar
    11    12    13   ar
    12    13    14   ar
    13    14    17    1
    14    17    18    1
    15    18    19   ar
    16    19    20   ar
    17    20    21   ar
    18    21    22   ar
    19    22    23   ar
    20    14    15   ar
    21    15    16   ar
    22     5     7   ar
    23     7    30    1
    24    30    31    1
    25    31    32   ar
    26    32    33   ar
    27    33    34   ar
    28    34    35    1
    29    34    36   ar
    30    36    37   ar
    31     7     8   ar
    32     8     9    2
    33    26    27    1
    34    27    28   ar
    35    27    29   ar
    36     8     1   ar
    37    16    11   ar
    38    37    31   ar
    39    23    18   ar
    40     4    10    1
@<TRIPOS>MOLECULE
*****
 37 40 0 0 0
SMALL
GASTEIGER

@<TRIPOS>ATOM
      1 N          65.2113   91.7427   12.8553 N.ar    1  UNL1       -0.2340
      2 C          64.4400   91.7776   11.5693 C.ar    1  UNL1        0.3338
      3 O          64.6885   92.8731   10.5751 O.2     1  UNL1       -0.2463
      4 N          63.4203   90.7170   11.2773 N.ar    1  UNL1       -0.2776
      5 C          63.1718   89.6215   12.2714 C.ar    1  UNL1        0.2175
      6 N          62.1520   88.5609   11.9794 N.2     1  UNL1       -0.2128
      7 N          63.9431   89.5867   13.5574 N.ar    1  UNL1       -0.2479
      8 C          64.9628   90.6473   13.8493 C.ar    1  UNL1        0.3373
      9 O          65.7341   90.6124   15.1354 O.2     1  UNL1       -0.2461
     10 H          62.9140   90.7399   10.4332 H       1  UNL1        0.1733
     11 C          61.3807   88.5958   10.6934 C.ar    1  UNL1        0.0846
     12 C          60.6439   89.8399   10.2943 C.ar    1  UNL1        0.0223
     13 C          59.8726   89.8747    9.0082 C.ar    1  UNL1        0.0391
     14 C          59.8381   88.6655    8.1213 C.ar    1  UNL1        0.1473
     15 C          60.5750   87.4214    8.5204 C.ar    1  UNL1        0.0391
     16 C          61.3463   87.3866    9.8064 C.ar    1  UNL1        0.0223
     17 O          59.0668   88.7003    6.8352 O.3     1  UNL1       -0.4361
     18 C          59.1138   89.9214    5.9654 C.ar    1  UNL1        0.2297
     19 C          57.8466   90.6473    5.6227 C.ar    1  UNL1        0.0581
     20 C          57.8935   91.8685    4.7529 C.ar    1  UNL1        0.0064
     21 C          59.2077   92.3637    4.2257 C.ar    1  UNL1        0.0209
     22 C          60.4748   91.6378    4.5684 C.ar    1  UNL1        0.1021
     23 N          60.4278   90.4167    5.4382 N.ar    1  UNL1       -0.2098
     24 C          66.2310   92.8033   13.1472 C.3     1  UNL1        0.1205
     25 C          68.4173   91.6004   12.4236 C.3     1  UNL1        0.0079
     26 C          67.6547   92.4194   13.4225 C.3     1  UNL1        0.0594
     27 C          68.3158   92.8545   14.6967 C.2     1  UNL1        0.0519
     28 O          67.4822   93.3262   15.8511 O.co2   1  UNL1       -0.5491
     29 O          69.8106   92.8179   14.8166 O.co2   1  UNL1       -0.5491
     30 C          63.6946   88.4912   14.5515 C.3     1  UNL1        0.1401
     31 C          63.9356   87.0613   14.1677 C.ar    1  UNL1        0.0007
     32 C          63.1704   86.4506   13.0313 C.ar    1  UNL1       -0.0015
     33 C          63.4115   85.0206   12.6475 C.ar    1  UNL1        0.0111
     34 C          64.4176   84.2015   13.4002 C.ar    1  UNL1        0.0577
     35 CL         64.6586   82.7716   13.0165 Cl      1  UNL1       -0.0822
     36 C          65.1828   84.8122   14.5367 C.ar    1  UNL1        0.0111
     37 C          64.9418   86.2421   14.9204 C.ar    1  UNL1       -0.0015
@<TRIPOS>UNITY_ATOM_ATTR
28 1
charge -1
@<TRIPOS>BOND
     1    26    25    1
     2    26    24    1
     3    24     1    1
     4     1     2   ar
     5     2     3    2
     6     2     4   ar
     7     4     5   ar
     8     5     6    2
     9     6    11    1
    10    11    12   ar
    11    12    13   ar
    12    13    14   ar
    13    14    17    1
    14    17    18    1
    15    18    19   ar
    16    19    20   ar
    17    20    21   ar
    18    21    22   ar
    19    22    23   ar
    20    14    15   ar
    21    15    16   ar
    22     5     7   ar
    23     7    30    1
    24    30    31    1
    25    31    32   ar
    26    32    33   ar
    27    33    34   ar
    28    34    35    1
    29    34    36   ar
    30    36    37   ar
    31     7     8   ar
    32     8     9    2
    33    26    27    1
    34    27    28   ar
    35    27    29   ar
    36     8     1   ar
    37    16    11   ar
    38    37    31   ar
    39    23    18   ar
    40     4    10    1
@<TRIPOS>MOLECULE
*****
 37 40 0 0 0
SMALL
GASTEIGER

@<TRIPOS>ATOM
      1 N          61.5826   87.3183   10.7305 N.ar    1  UNL1       -0.2340
      2 C          62.0352   88.7278   10.4893 C.ar    1  UNL1        0.3338
      3 O          61.5121   89.4920    9.3093 O.2     1  UNL1       -0.2463
      4 N          63.0110   89.3733   11.4281 N.ar    1  UNL1       -0.2776
      5 C          63.5341   88.6092   12.6081 C.ar    1  UNL1        0.2175
      6 N          64.5098   89.2546   13.5469 N.2     1  UNL1       -0.2128
      7 N          63.0815   87.1996   12.8493 N.ar    1  UNL1       -0.2479
      8 C          62.1057   86.5542   11.9105 C.ar    1  UNL1        0.3373
      9 O          61.6531   85.1445   12.1517 O.2     1  UNL1       -0.2461
     10 H          63.3080   90.2984   11.2698 H       1  UNL1        0.1733
     11 C          64.9624   90.6642   13.3057 C.ar    1  UNL1        0.0846
     12 C          64.5356   91.3866   12.0623 C.ar    1  UNL1        0.0223
     13 C          64.9883   92.7962   11.8212 C.ar    1  UNL1        0.0391
     14 C          65.8677   93.4834   12.8233 C.ar    1  UNL1        0.1473
     15 C          66.2945   92.7610   14.0667 C.ar    1  UNL1        0.0391
     16 C          65.8419   91.3514   14.3079 C.ar    1  UNL1        0.0223
     17 O          66.3204   94.8930   12.5822 O.3     1  UNL1       -0.4361
     18 C          66.4023   95.4253   11.1822 C.ar    1  UNL1        0.2297
     19 C          65.3215   96.3230   10.6566 C.ar    1  UNL1        0.0581
     20 C          65.4035   96.8552    9.2566 C.ar    1  UNL1        0.0064
     21 C          66.5662   96.4898    8.3822 C.ar    1  UNL1        0.0209
     22 C          67.6469   95.5921    8.9078 C.ar    1  UNL1        0.1021
     23 N          67.5650   95.0599   10.3078 N.ar    1  UNL1       -0.2098
     24 C          60.6069   86.6728    9.7917 C.3     1  UNL1        0.1205
     25 C          62.5335   85.5334    8.4727 C.3     1  UNL1        0.0079
     26 C          61.1015   85.9710    8.5618 C.3     1  UNL1        0.0594
     27 C          60.1642   85.7068    7.4209 C.2     1  UNL1        0.0519
     28 O          58.8120   86.3556    7.3954 O.co2   1  UNL1       -0.5491
     29 O          60.5791   84.7937    6.3054 O.co2   1  UNL1       -0.5491
     30 C          63.6046   86.4354   14.0293 C.3     1  UNL1        0.1401
     31 C          63.5404   84.9368   14.0407 C.ar    1  UNL1        0.0007
     32 C          62.5858   84.2340   14.9598 C.ar    1  UNL1       -0.0015
     33 C          62.5216   82.7354   14.9712 C.ar    1  UNL1        0.0111
     34 C          63.4119   81.9397   14.0634 C.ar    1  UNL1        0.0577
     35 CL         63.3477   80.4411   14.0748 Cl      1  UNL1       -0.0822
     36 C          64.3665   82.6425   13.1443 C.ar    1  UNL1        0.0111
     37 C          64.4307   84.1410   13.1329 C.ar    1  UNL1       -0.0015
@<TRIPOS>UNITY_ATOM_ATTR
28 1
charge -1
@<TRIPOS>BOND
     1    26    25    1
     2    26    24    1
     3    24     1    1
     4     1     2   ar
     5     2     3    2
     6     2     4   ar
     7     4     5   ar
     8     5     6    2
     9     6    11    1
    10    11    12   ar
    11    12    13   ar
    12    13    14   ar
    13    14    17    1
    14    17    18    1
    15    18    19   ar
    16    19    20   ar
    17    20    21   ar
    18    21    22   ar
    19    22    23   ar
    20    14    15   ar
    21    15    16   ar
    22     5     7   ar
    23     7    30    1
    24    30    31    1
    25    31    32   ar
    26    32    33   ar
    27    33    34   ar
    28    34    35    1
    29    34    36   ar
    30    36    37   ar
    31     7     8   ar
    32     8     9    2
    33    26    27    1
    34    27    28   ar
    35    27    29   ar
    36     8     1   ar
    37    16    11   ar
    38    37    31   ar
    39    23    18   ar
    40     4    10    1
@<TRIPOS>MOLECULE
*****
 37 40 0 0 0
SMALL
GASTEIGER

@<TRIPOS>ATOM
      1 N          65.6394   92.6273   12.5120 N.ar    1  UNL1       -0.2340
      2 C          64.9146   92.3144   11.2366 C.ar    1  UNL1        0.3338
      3 O          65.3609   92.9385    9.9477 O.2     1  UNL1       -0.2463
      4 N          63.7434   91.3773   11.2502 N.ar    1  UNL1       -0.2776
      5 C          63.2970   90.7532   12.5390 C.ar    1  UNL1        0.2175
      6 N          62.1258   89.8161   12.5525 N.2     1  UNL1       -0.2128
      7 N          64.0219   91.0662   13.8144 N.ar    1  UNL1       -0.2479
      8 C          65.1931   92.0032   13.8009 C.ar    1  UNL1        0.3373
      9 O          65.9180   92.3162   15.0763 O.2     1  UNL1       -0.2461
     10 H          63.2676   91.1719   10.4131 H       1  UNL1        0.1733
     11 C          61.4009   89.5032   11.2772 C.ar    1  UNL1        0.0846
     12 C          61.8267   88.3335   10.4401 C.ar    1  UNL1        0.0223
     13 C          61.1017   88.0206    9.1647 C.ar    1  UNL1        0.0391
     14 C          59.9512   88.8773    8.7264 C.ar    1  UNL1        0.1473
     15 C          59.5254   90.0469    9.5635 C.ar    1  UNL1        0.0391
     16 C          60.2503   90.3599   10.8388 C.ar    1  UNL1        0.0223
     17 O          59.2262   88.5643    7.4510 O.3     1  UNL1       -0.4361
     18 C          59.0053   89.6411    6.4303 C.ar    1  UNL1        0.2297
     19 C          57.6104   90.0662    6.0785 C.ar    1  UNL1        0.0581
     20 C          57.3895   91.1430    5.0578 C.ar    1  UNL1        0.0064
     21 C          58.5635   91.7945    4.3889 C.ar    1  UNL1        0.0209
     22 C          59.9582   91.3694    4.7407 C.ar    1  UNL1        0.1021
     23 N          60.1792   90.2926    5.7614 N.ar    1  UNL1       -0.2098
     24 C          66.8107   93.5644   12.4985 C.3     1  UNL1        0.1205
     25 C          66.1535   95.9423   11.6838 C.3     1  UNL1        0.0079
     26 C          66.8887   94.6525   11.4691 C.3     1  UNL1        0.0594
     27 C          67.7020   94.4511   10.2249 C.2     1  UNL1        0.0519
     28 O          67.6675   95.4777    9.1318 O.co2   1  UNL1       -0.5491
     29 O          68.5498   93.2228   10.0738 O.co2   1  UNL1       -0.5491
     30 C          63.5755   90.4421   15.1033 C.3     1  UNL1        0.1401
     31 C          63.6955   88.9599   15.3000 C.ar    1  UNL1        0.0007
     32 C          64.4062   88.1228   14.2782 C.ar    1  UNL1       -0.0015
     33 C          64.5261   86.6405   14.4750 C.ar    1  UNL1        0.0111
     34 C          63.9353   85.9955   15.6935 C.ar    1  UNL1        0.0577
     35 CL         64.0552   84.5133   15.8902 Cl      1  UNL1       -0.0822
     36 C          63.2246   86.8326   16.7153 C.ar    1  UNL1        0.0111
     37 C          63.1046   88.3147   16.5186 C.ar    1  UNL1       -0.0015
@<TRIPOS>UNITY_ATOM_ATTR
28 1
charge -1
@<TRIPOS>BOND
     1    26    25    1
     2    26    24    1
     3    24     1    1
     4     1     2   ar
     5     2     3    2
     6     2     4   ar
     7     4     5   ar
     8     5     6    2
     9     6    11    1
    10    11    12   ar
    11    12    13   ar
    12    13    14   ar
    13    14    17    1
    14    17    18    1
    15    18    19   ar
    16    19    20   ar
    17    20    21   ar
    18    21    22   ar
    19    22    23   ar
    20    14    15   ar
    21    15    16   ar
    22     5     7   ar
    23     7    30    1
    24    30    31    1
    25    31    32   ar
    26    32    33   ar
    27    33    34   ar
    28    34    35    1
    29    34    36   ar
    30    36    37   ar
    31     7     8   ar
    32     8     9    2
    33    26    27    1
    34    27    28   ar
    35    27    29   ar
    36     8     1   ar
    37    16    11   ar
    38    37    31   ar
    39    23    18   ar
    40     4    10    1
@<TRIPOS>MOLECULE
*****
 37 40 0 0 0
SMALL
GASTEIGER

@<TRIPOS>ATOM
      1 N          63.7415   87.3566   13.8900 N.ar    1  UNL1       -0.2340
      2 C          62.8376   88.2309   13.0724 C.ar    1  UNL1        0.3338
      3 O          62.5194   89.6218   13.5354 O.2     1  UNL1       -0.2463
      4 N          62.2517   87.7144   11.7917 N.ar    1  UNL1       -0.2776
      5 C          62.5698   86.3236   11.3287 C.ar    1  UNL1        0.2175
      6 N          61.9840   85.8070   10.0481 N.2     1  UNL1       -0.2128
      7 N          63.4737   85.4493   12.1464 N.ar    1  UNL1       -0.2479
      8 C          64.0596   85.9658   13.4270 C.ar    1  UNL1        0.3373
      9 O          64.9635   85.0915   14.2447 O.2     1  UNL1       -0.2461
     10 H          61.6585   88.2882   11.2551 H       1  UNL1        0.1733
     11 C          61.0801   86.6813    9.2305 C.ar    1  UNL1        0.0846
     12 C          61.0415   88.1601    9.4786 C.ar    1  UNL1        0.0223
     13 C          60.1375   89.0344    8.6609 C.ar    1  UNL1        0.0391
     14 C          59.2723   88.4298    7.5952 C.ar    1  UNL1        0.1473
     15 C          59.3109   86.9510    7.3471 C.ar    1  UNL1        0.0391
     16 C          60.2148   86.0767    8.1647 C.ar    1  UNL1        0.0223
     17 O          58.3683   89.3041    6.7774 O.3     1  UNL1       -0.4361
     18 C          58.9530   90.3071    5.8276 C.ar    1  UNL1        0.2297
     19 C          58.0688   91.3319    5.1811 C.ar    1  UNL1        0.0581
     20 C          58.6535   92.3349    4.2312 C.ar    1  UNL1        0.0064
     21 C          60.1224   92.3130    3.9280 C.ar    1  UNL1        0.0209
     22 C          61.0065   91.2882    4.5745 C.ar    1  UNL1        0.1021
     23 N          60.4218   90.2852    5.5243 N.ar    1  UNL1       -0.2098
     24 C          64.3273   87.8732   15.1706 C.3     1  UNL1        0.1205
     25 C          63.1245   89.4859   16.8147 C.3     1  UNL1        0.0079
     26 C          63.4456   88.0915   16.3644 C.3     1  UNL1        0.0594
     27 C          62.8850   86.9155   17.1078 C.2     1  UNL1        0.0519
     28 O          62.7031   86.9858   18.5950 O.co2   1  UNL1       -0.5491
     29 O          62.5062   85.6692   16.3639 O.co2   1  UNL1       -0.5491
     30 C          63.7919   84.0584   11.6834 C.3     1  UNL1        0.1401
     31 C          63.1108   82.8824   12.3183 C.ar    1  UNL1        0.0007
     32 C          63.1446   81.5426   11.6447 C.ar    1  UNL1       -0.0015
     33 C          62.4635   80.3666   12.2797 C.ar    1  UNL1        0.0111
     34 C          61.7485   80.5304   13.5881 C.ar    1  UNL1        0.0577
     35 CL         61.0674   79.3545   14.2229 Cl      1  UNL1       -0.0822
     36 C          61.7146   81.8703   14.2616 C.ar    1  UNL1        0.0111
     37 C          62.3958   83.0463   13.6267 C.ar    1  UNL1       -0.0015
@<TRIPOS>UNITY_ATOM_ATTR
28 1
charge -1
@<TRIPOS>BOND
     1    26    25    1
     2    26    24    1
     3    24     1    1
     4     1     2   ar
     5     2     3    2
     6     2     4   ar
     7     4     5   ar
     8     5     6    2
     9     6    11    1
    10    11    12   ar
    11    12    13   ar
    12    13    14   ar
    13    14    17    1
    14    17    18    1
    15    18    19   ar
    16    19    20   ar
    17    20    21   ar
    18    21    22   ar
    19    22    23   ar
    20    14    15   ar
    21    15    16   ar
    22     5     7   ar
    23     7    30    1
    24    30    31    1
    25    31    32   ar
    26    32    33   ar
    27    33    34   ar
    28    34    35    1
    29    34    36   ar
    30    36    37   ar
    31     7     8   ar
    32     8     9    2
    33    26    27    1
    34    27    28   ar
    35    27    29   ar
    36     8     1   ar
    37    16    11   ar
    38    37    31   ar
    39    23    18   ar
    40     4    10    1
@<TRIPOS>MOLECULE
*****
 37 40 0 0 0
SMALL
GASTEIGER

@<TRIPOS>ATOM
      1 N          65.7277   93.0375   12.2623 N.ar    1  UNL1       -0.2340
      2 C          65.0334   92.3420   11.1291 C.ar    1  UNL1        0.3338
      3 O          65.3089   92.7555    9.7137 O.2     1  UNL1       -0.2463
      4 N          64.0637   91.2329   11.4112 N.ar    1  UNL1       -0.2776
      5 C          63.7882   90.8194   12.8265 C.ar    1  UNL1        0.2175
      6 N          62.8185   89.7103   13.1086 N.2     1  UNL1       -0.2128
      7 N          64.4824   91.5149   13.9597 N.ar    1  UNL1       -0.2479
      8 C          65.4522   92.6240   13.6776 C.ar    1  UNL1        0.3373
      9 O          66.1465   93.3196   14.8109 O.2     1  UNL1       -0.2461
     10 H          63.6080   90.7764   10.6674 H       1  UNL1        0.1733
     11 C          62.1242   89.0147   11.9754 C.ar    1  UNL1        0.0846
     12 C          62.4223   87.5737   11.6845 C.ar    1  UNL1        0.0223
     13 C          61.7279   86.8782   10.5513 C.ar    1  UNL1        0.0391
     14 C          60.7356   87.6236    9.7089 C.ar    1  UNL1        0.1473
     15 C          60.4376   89.0647    9.9998 C.ar    1  UNL1        0.0391
     16 C          61.1318   89.7602   11.1330 C.ar    1  UNL1        0.0223
     17 O          60.0413   86.9281    8.5757 O.3     1  UNL1       -0.4361
     18 C          60.7965   85.9591    7.7150 C.ar    1  UNL1        0.2297
     19 C          62.2613   85.7339    7.9467 C.ar    1  UNL1        0.0581
     20 C          63.0165   84.7649    7.0861 C.ar    1  UNL1        0.0064
     21 C          62.3068   84.0210    5.9937 C.ar    1  UNL1        0.0209
     22 C          60.8421   84.2462    5.7621 C.ar    1  UNL1        0.1021
     23 N          60.0869   85.2152    6.6227 N.ar    1  UNL1       -0.2098
     24 C          66.6974   94.1466   11.9802 C.3     1  UNL1        0.1205
     25 C          65.4180   96.0515   10.7619 C.3     1  UNL1        0.0079
     26 C          66.5076   95.0207   10.7761 C.3     1  UNL1        0.0594
     27 C          67.4073   94.8639    9.5862 C.2     1  UNL1        0.0519
     28 O          67.0821   95.5677    8.3021 O.co2   1  UNL1       -0.5491
     29 O          68.6323   94.0033    9.6804 O.co2   1  UNL1       -0.5491
     30 C          64.2070   91.1014   15.3751 C.3     1  UNL1        0.1401
     31 C          63.9581   89.6584   15.6999 C.ar    1  UNL1        0.0007
     32 C          64.5954   88.5824   14.8716 C.ar    1  UNL1       -0.0015
     33 C          64.3465   87.1393   15.1965 C.ar    1  UNL1        0.0111
     34 C          63.4602   86.7722   16.3496 C.ar    1  UNL1        0.0577
     35 CL         63.2113   85.3291   16.6744 Cl      1  UNL1       -0.0822
     36 C          62.8229   87.8481   17.1779 C.ar    1  UNL1        0.0111
     37 C          63.0718   89.2912   16.8531 C.ar    1  UNL1       -0.0015
@<TRIPOS>UNITY_ATOM_ATTR
28 1
charge -1
@<TRIPOS>BOND
     1    26    25    1
     2    26    24    1
     3    24     1    1
     4     1     2   ar
     5     2     3    2
     6     2     4   ar
     7     4     5   ar
     8     5     6    2
     9     6    11    1
    10    11    12   ar
    11    12    13   ar
    12    13    14   ar
    13    14    17    1
    14    17    18    1
    15    18    19   ar
    16    19    20   ar
    17    20    21   ar
    18    21    22   ar
    19    22    23   ar
    20    14    15   ar
    21    15    16   ar
    22     5     7   ar
    23     7    30    1
    24    30    31    1
    25    31    32   ar
    26    32    33   ar
    27    33    34   ar
    28    34    35    1
    29    34    36   ar
    30    36    37   ar
    31     7     8   ar
    32     8     9    2
    33    26    27    1
    34    27    28   ar
    35    27    29   ar
    36     8     1   ar
    37    16    11   ar
    38    37    31   ar
    39    23    18   ar
    40     4    10    1
@<TRIPOS>MOLECULE
*****
 37 40 0 0 0
SMALL
GASTEIGER

@<TRIPOS>ATOM
      1 N          64.0152   85.0628   13.4249 N.ar    1  UNL1       -0.2340
      2 C          63.2253   85.0616   12.1498 C.ar    1  UNL1        0.3338
      3 O          63.0551   83.7891   11.3741 O.2     1  UNL1       -0.2463
      4 N          62.6057   86.3331   11.6502 N.ar    1  UNL1       -0.2776
      5 C          62.7759   87.6056   12.4259 C.ar    1  UNL1        0.2175
      6 N          62.1563   88.8770   11.9263 N.2     1  UNL1       -0.2128
      7 N          63.5658   87.6067   13.7010 N.ar    1  UNL1       -0.2479
      8 C          64.1854   86.3353   14.2006 C.ar    1  UNL1        0.3373
      9 O          64.9753   86.3364   15.4758 O.2     1  UNL1       -0.2461
     10 H          62.0873   86.3323   10.8133 H       1  UNL1        0.1733
     11 C          61.3664   88.8759   10.6512 C.ar    1  UNL1        0.0846
     12 C          61.3842   87.6702    9.7589 C.ar    1  UNL1        0.0223
     13 C          60.5943   87.6692    8.4837 C.ar    1  UNL1        0.0391
     14 C          59.7867   88.8737    8.1008 C.ar    1  UNL1        0.1473
     15 C          59.7689   90.0794    8.9930 C.ar    1  UNL1        0.0391
     16 C          60.5587   90.0805   10.2682 C.ar    1  UNL1        0.0223
     17 O          58.9968   88.8727    6.8256 O.3     1  UNL1       -0.4361
     18 C          59.0494   90.0595    5.9097 C.ar    1  UNL1        0.2297
     19 C          60.3678   90.5387    5.3781 C.ar    1  UNL1        0.0581
     20 C          60.4204   91.7255    4.4623 C.ar    1  UNL1        0.0064
     21 C          59.1548   92.4331    4.0781 C.ar    1  UNL1        0.0209
     22 C          57.8366   91.9539    4.6097 C.ar    1  UNL1        0.1021
     23 N          57.7839   90.7671    5.5255 N.ar    1  UNL1       -0.2098
     24 C          64.6348   83.7913   13.9245 C.3     1  UNL1        0.1205
     25 C          64.2910   81.2538   13.4853 C.3     1  UNL1        0.0079
     26 C          63.8007   82.5516   14.0558 C.3     1  UNL1        0.0594
     27 C          62.4763   82.6096   14.7577 C.2     1  UNL1        0.0519
     28 O          62.1853   83.7233   15.7193 O.co2   1  UNL1       -0.5491
     29 O          61.4430   81.5537   14.4980 O.co2   1  UNL1       -0.5491
     30 C          63.7360   88.8793   14.4767 C.3     1  UNL1        0.1401
     31 C          64.4602   90.0406   13.8629 C.ar    1  UNL1        0.0007
     32 C          63.9087   90.7048   12.6362 C.ar    1  UNL1       -0.0015
     33 C          64.6330   91.8662   12.0224 C.ar    1  UNL1        0.0111
     34 C          65.9086   92.3634   12.6353 C.ar    1  UNL1        0.0577
     35 CL         66.6328   93.5247   12.0214 Cl      1  UNL1       -0.0822
     36 C          66.4600   91.6991   13.8620 C.ar    1  UNL1        0.0111
     37 C          65.7358   90.5378   14.4758 C.ar    1  UNL1       -0.0015
@<TRIPOS>UNITY_ATOM_ATTR
28 1
charge -1
@<TRIPOS>BOND
     1    26    25    1
     2    26    24    1
     3    24     1    1
     4     1     2   ar
     5     2     3    2
     6     2     4   ar
     7     4     5   ar
     8     5     6    2
     9     6    11    1
    10    11    12   ar
    11    12    13   ar
    12    13    14   ar
    13    14    17    1
    14    17    18    1
    15    18    19   ar
    16    19    20   ar
    17    20    21   ar
    18    21    22   ar
    19    22    23   ar
    20    14    15   ar
    21    15    16   ar
    22     5     7   ar
    23     7    30    1
    24    30    31    1
    25    31    32   ar
    26    32    33   ar
    27    33    34   ar
    28    34    35    1
    29    34    36   ar
    30    36    37   ar
    31     7     8   ar
    32     8     9    2
    33    26    27    1
    34    27    28   ar
    35    27    29   ar
    36     8     1   ar
    37    16    11   ar
    38    37    31   ar
    39    23    18   ar
    40     4    10    1
@<TRIPOS>MOLECULE
*****
 37 40 0 0 0
SMALL
GASTEIGER

@<TRIPOS>ATOM
      1 N          58.7210   93.9715   -1.1239 N.ar    1  UNL1       -0.2340
      2 C          58.3539   92.7893   -0.2770 C.ar    1  UNL1        0.3338
      3 O          57.5237   91.6815   -0.8548 O.2     1  UNL1       -0.2463
      4 N          58.8168   92.7147    1.1479 N.ar    1  UNL1       -0.2776
      5 C          59.6469   93.8223    1.7257 C.ar    1  UNL1        0.2175
      6 N          60.1099   93.7477    3.1505 N.2     1  UNL1       -0.2128
      7 N          60.0141   95.0046    0.8787 N.ar    1  UNL1       -0.2479
      8 C          59.5511   95.0792   -0.5461 C.ar    1  UNL1        0.3373
      9 O          59.9183   96.2615   -1.3931 O.2     1  UNL1       -0.2461
     10 H          58.5758   91.9387    1.7038 H       1  UNL1        0.1733
     11 C          59.7427   92.5655    3.9975 C.ar    1  UNL1        0.0846
     12 C          58.3138   92.3431    4.3960 C.ar    1  UNL1        0.0223
     13 C          57.9467   91.1608    5.2430 C.ar    1  UNL1        0.0391
     14 C          59.0085   90.2009    5.6915 C.ar    1  UNL1        0.1473
     15 C          60.4374   90.4233    5.2930 C.ar    1  UNL1        0.0391
     16 C          60.8045   91.6055    4.4461 C.ar    1  UNL1        0.0223
     17 O          58.6413   89.0186    6.5385 O.3     1  UNL1       -0.4361
     18 C          59.5931   88.5221    7.5862 C.ar    1  UNL1        0.2297
     19 C          59.9758   87.0722    7.6253 C.ar    1  UNL1        0.0581
     20 C          60.9276   86.5757    8.6730 C.ar    1  UNL1        0.0064
     21 C          61.4966   87.5292    9.6816 C.ar    1  UNL1        0.0209
     22 C          61.1139   88.9790    9.6425 C.ar    1  UNL1        0.1021
     23 N          60.1621   89.4754    8.5948 N.ar    1  UNL1       -0.2098
     24 C          58.2580   94.0461   -2.5487 C.3     1  UNL1        0.1205
     25 C          56.8504   95.4656   -4.2082 C.3     1  UNL1        0.0079
     26 C          56.9873   94.7673   -2.8877 C.3     1  UNL1        0.0594
     27 C          55.8533   94.7904   -1.9060 C.2     1  UNL1        0.0519
     28 O          55.5324   96.0516   -1.1603 O.co2   1  UNL1       -0.5491
     29 O          55.0402   93.5521   -1.6702 O.co2   1  UNL1       -0.5491
     30 C          60.8442   96.1123    1.4566 C.3     1  UNL1        0.1401
     31 C          62.2635   96.2982    1.0082 C.ar    1  UNL1        0.0007
     32 C          63.3464   96.5254    2.0211 C.ar    1  UNL1       -0.0015
     33 C          64.7657   96.7112    1.5727 C.ar    1  UNL1        0.0111
     34 C          65.1022   96.6699    0.1115 C.ar    1  UNL1        0.0577
     35 CL         66.5214   96.8557   -0.3368 Cl      1  UNL1       -0.0822
     36 C          64.0193   96.4426   -0.9013 C.ar    1  UNL1        0.0111
     37 C          62.6000   96.2568   -0.4530 C.ar    1  UNL1       -0.0015
@<TRIPOS>UNITY_ATOM_ATTR
28 1
charge -1
@<TRIPOS>BOND
     1    26    25    1
     2    26    24    1
     3    24     1    1
     4     1     2   ar
     5     2     3    2
     6     2     4   ar
     7     4     5   ar
     8     5     6    2
     9     6    11    1
    10    11    12   ar
    11    12    13   ar
    12    13    14   ar
    13    14    17    1
    14    17    18    1
    15    18    19   ar
    16    19    20   ar
    17    20    21   ar
    18    21    22   ar
    19    22    23   ar
    20    14    15   ar
    21    15    16   ar
    22     5     7   ar
    23     7    30    1
    24    30    31    1
    25    31    32   ar
    26    32    33   ar
    27    33    34   ar
    28    34    35    1
    29    34    36   ar
    30    36    37   ar
    31     7     8   ar
    32     8     9    2
    33    26    27    1
    34    27    28   ar
    35    27    29   ar
    36     8     1   ar
    37    16    11   ar
    38    37    31   ar
    39    23    18   ar
    40     4    10    1
@<TRIPOS>MOLECULE
*****
 37 40 0 0 0
SMALL
GASTEIGER

@<TRIPOS>ATOM
      1 N          64.4585   88.8280   13.8027 N.ar    1  UNL1       -0.2340
      2 C          63.6428   89.3404   12.6529 C.ar    1  UNL1        0.3338
      3 O          63.7628   90.7741   12.2282 O.2     1  UNL1       -0.2463
      4 N          62.7072   88.4192   11.9277 N.ar    1  UNL1       -0.2776
      5 C          62.5872   86.9856   12.3523 C.ar    1  UNL1        0.2175
      6 N          61.6515   86.0644   11.6272 N.2     1  UNL1       -0.2128
      7 N          63.4028   86.4732   13.5021 N.ar    1  UNL1       -0.2479
      8 C          64.3385   87.3944   14.2273 C.ar    1  UNL1        0.3373
      9 O          65.1542   86.8819   15.3771 O.2     1  UNL1       -0.2461
     10 H          62.1718   88.7555   11.1730 H       1  UNL1        0.1733
     11 C          60.8358   86.5768   10.4774 C.ar    1  UNL1        0.0846
     12 C          59.9750   87.7928   10.6515 C.ar    1  UNL1        0.0223
     13 C          59.1592   88.3051    9.5016 C.ar    1  UNL1        0.0391
     14 C          59.2044   87.6015    8.1777 C.ar    1  UNL1        0.1473
     15 C          60.0652   86.3856    8.0035 C.ar    1  UNL1        0.0391
     16 C          60.8809   85.8732    9.1533 C.ar    1  UNL1        0.0223
     17 O          58.3887   88.1139    7.0278 O.3     1  UNL1       -0.4361
     18 C          58.8047   89.3645    6.3116 C.ar    1  UNL1        0.2297
     19 C          60.2589   89.6416    6.0694 C.ar    1  UNL1        0.0581
     20 C          60.6750   90.8922    5.3532 C.ar    1  UNL1        0.0064
     21 C          59.6368   91.8656    4.8791 C.ar    1  UNL1        0.0209
     22 C          58.1827   91.5885    5.1212 C.ar    1  UNL1        0.1021
     23 N          57.7666   90.3379    5.8375 N.ar    1  UNL1       -0.2098
     24 C          65.3942   89.7492   14.5278 C.3     1  UNL1        0.1205
     25 C          65.5629   92.3417   14.5539 C.3     1  UNL1        0.0079
     26 C          64.9048   91.0779   15.0228 C.3     1  UNL1        0.0594
     27 C          63.7573   91.1429   15.9867 C.2     1  UNL1        0.0519
     28 O          62.8514   89.9593   16.1552 O.co2   1  UNL1       -0.5491
     29 O          63.5158   92.3915   16.7821 O.co2   1  UNL1       -0.5491
     30 C          63.2829   85.0395   13.9268 C.3     1  UNL1        0.1401
     31 C          63.3113   83.9478   12.8985 C.ar    1  UNL1        0.0007
     32 C          64.2512   84.0395   11.7331 C.ar    1  UNL1       -0.0015
     33 C          64.2797   82.9478   10.7048 C.ar    1  UNL1        0.0111
     34 C          63.3683   81.7644   10.8420 C.ar    1  UNL1        0.0577
     35 CL         63.3967   80.6727    9.8138 Cl      1  UNL1       -0.0822
     36 C          62.4284   81.6727   12.0074 C.ar    1  UNL1        0.0111
     37 C          62.3999   82.7644   13.0357 C.ar    1  UNL1       -0.0015
@<TRIPOS>UNITY_ATOM_ATTR
28 1
charge -1
@<TRIPOS>BOND
     1    26    25    1
     2    26    24    1
     3    24     1    1
     4     1     2   ar
     5     2     3    2
     6     2     4   ar
     7     4     5   ar
     8     5     6    2
     9     6    11    1
    10    11    12   ar
    11    12    13   ar
    12    13    14   ar
    13    14    17    1
    14    17    18    1
    15    18    19   ar
    16    19    20   ar
    17    20    21   ar
    18    21    22   ar
    19    22    23   ar
    20    14    15   ar
    21    15    16   ar
    22     5     7   ar
    23     7    30    1
    24    30    31    1
    25    31    32   ar
    26    32    33   ar
    27    33    34   ar
    28    34    35    1
    29    34    36   ar
    30    36    37   ar
    31     7     8   ar
    32     8     9    2
    33    26    27    1
    34    27    28   ar
    35    27    29   ar
    36     8     1   ar
    37    16    11   ar
    38    37    31   ar
    39    23    18   ar
    40     4    10    1
