@<TRIPOS>MOLECULE
*****
 27 30 0 0 0
SMALL
GASTEIGER

@<TRIPOS>ATOM
      1 C          62.5314   89.9411   10.5472 C.ar    1  UNL1        0.1512
      2 C          61.1671   90.4294   10.1595 C.ar    1  UNL1        0.1338
      3 N          60.2053   89.5034    9.4758 N.ar    1  UNL1       -0.2291
      4 C          60.6078   88.0890    9.1798 C.ar    1  UNL1        0.1669
      5 C          61.9721   87.6007    9.5676 C.ar    1  UNL1        0.1131
      6 N          62.9338   88.5268   10.2513 N.ar    1  UNL1       -0.2268
      7 C          66.3786   93.6451   13.2821 C.2     1  UNL1        0.2252
      8 O          66.9144   94.8416   12.5533 O.2     1  UNL1       -0.2749
      9 N          65.4168   92.7191   12.5984 N.am    1  UNL1       -0.2777
     10 C          64.8810   91.5226   13.3273 C.3     1  UNL1        0.1148
     11 C          63.9192   90.5966   12.6435 C.3     1  UNL1        0.1137
     12 N          63.4932   90.8672   11.2310 N.pl3   1  UNL1       -0.2886
     13 C          64.0290   92.0637   10.5021 C.3     1  UNL1        0.1120
     14 C          64.9908   92.9896   11.1859 C.3     1  UNL1        0.0952
     15 C          65.5266   94.1862   10.4570 C.3     1  UNL1        0.0233
     16 C          69.1946   93.8929   16.2490 C.3     1  UNL1        0.0005
     17 C          67.8353   93.4653   15.7806 C.3     1  UNL1        0.0091
     18 C          66.5117   92.8153   16.0553 C.3     1  UNL1        0.0095
     19 C          66.8046   93.3746   14.6947 C.3     1  UNL1        0.0767
     20 C          62.3746   86.1864    9.2716 C.ar    1  UNL1        0.0595
     21 C          62.3871   85.5379    7.9191 C.ar    1  UNL1        0.1232
     22 N          62.8554   84.1229    8.0877 N.ar    1  UNL1       -0.1675
     23 N          63.1324   83.8969    9.5445 N.ar    1  UNL1       -0.2473
     24 C          63.6209   82.6198   10.1614 C.3     1  UNL1        0.1538
     25 C          62.8352   85.1722   10.2762 C.ar    1  UNL1        0.0983
     26 C          59.6460   87.1630    8.4962 C.1     1  UNL1        0.1213
     27 N          58.6843   86.2370    7.8125 N.1     1  UNL1       -0.1892
@<TRIPOS>BOND
     1    17    16    1
     2    17    18    1
     3    18    19    1
     4    19     7    1
     5     7     8    2
     6     7     9   am
     7     9    10    1
     8    10    11    1
     9    11    12    1
    10    12     1    1
    11     1     2   ar
    12     2     3   ar
    13     3     4   ar
    14     4    26    1
    15    26    27    3
    16     4     5   ar
    17     5    20    1
    18    20    21   ar
    19    21    22   ar
    20    22    23   ar
    21    23    24    1
    22    23    25   ar
    23     5     6   ar
    24    12    13    1
    25    13    14    1
    26    14    15    1
    27    19    17    1
    28    14     9    1
    29     6     1   ar
    30    25    20   ar
@<TRIPOS>MOLECULE
*****
 27 30 0 0 0
SMALL
GASTEIGER

@<TRIPOS>ATOM
      1 C          63.4789   87.2263   14.8499 C.ar    1  UNL1        0.1512
      2 C          63.0584   87.5287   16.2576 C.ar    1  UNL1        0.1338
      3 N          63.2688   88.9014   16.8248 N.ar    1  UNL1       -0.2291
      4 C          63.8996   89.9716   15.9842 C.ar    1  UNL1        0.1669
      5 C          64.3201   89.6691   14.5764 C.ar    1  UNL1        0.1131
      6 N          64.1097   88.2965   14.0093 N.ar    1  UNL1       -0.2268
      7 C          62.6374   81.7357   12.5815 C.2     1  UNL1        0.2252
      8 O          63.0837   81.4253   11.1835 O.2     1  UNL1       -0.2749
      9 N          62.8477   83.1084   13.1486 N.am    1  UNL1       -0.2777
     10 C          62.4014   83.4188   14.5466 C.3     1  UNL1        0.1148
     11 C          62.6118   84.7914   15.1137 C.3     1  UNL1        0.1137
     12 N          63.2685   85.8536   14.2828 N.pl3   1  UNL1       -0.2886
     13 C          63.7148   85.5432   12.8848 C.3     1  UNL1        0.1120
     14 C          63.5044   84.1706   12.3177 C.3     1  UNL1        0.0952
     15 C          63.9508   83.8602   10.9196 C.3     1  UNL1        0.0233
     16 C          59.2800   80.1713   14.3349 C.3     1  UNL1        0.0005
     17 C          60.7518   80.1009   14.0542 C.3     1  UNL1        0.0091
     18 C          62.0721   79.4063   14.2097 C.3     1  UNL1        0.0095
     19 C          61.9807   80.6735   13.4124 C.3     1  UNL1        0.0767
     20 C          64.9510   90.7393   13.7357 C.ar    1  UNL1        0.0595
     21 C          66.2827   91.3839   13.9826 C.ar    1  UNL1        0.1232
     22 N          66.5157   92.3958   12.9001 N.ar    1  UNL1       -0.1675
     23 N          65.3279   92.3766   11.9842 N.ar    1  UNL1       -0.2473
     24 C          65.1401   93.2311   10.7658 C.3     1  UNL1        0.1538
     25 C          64.3609   91.3528   12.5007 C.ar    1  UNL1        0.0983
     26 C          64.1100   91.3442   16.5512 C.1     1  UNL1        0.1213
     27 N          64.3204   92.7168   17.1183 N.1     1  UNL1       -0.1892
@<TRIPOS>BOND
     1    17    16    1
     2    17    18    1
     3    18    19    1
     4    19     7    1
     5     7     8    2
     6     7     9   am
     7     9    10    1
     8    10    11    1
     9    11    12    1
    10    12     1    1
    11     1     2   ar
    12     2     3   ar
    13     3     4   ar
    14     4    26    1
    15    26    27    3
    16     4     5   ar
    17     5    20    1
    18    20    21   ar
    19    21    22   ar
    20    22    23   ar
    21    23    24    1
    22    23    25   ar
    23     5     6   ar
    24    12    13    1
    25    13    14    1
    26    14    15    1
    27    19    17    1
    28    14     9    1
    29     6     1   ar
    30    25    20   ar
@<TRIPOS>MOLECULE
*****
 27 30 0 0 0
SMALL
GASTEIGER

@<TRIPOS>ATOM
      1 C          63.9227   87.7011   15.0549 C.ar    1  UNL1        0.1512
      2 C          63.2212   88.0459   16.3351 C.ar    1  UNL1        0.1338
      3 N          63.2685   89.4497   16.8618 N.ar    1  UNL1       -0.2291
      4 C          64.0174   90.5086   16.1082 C.ar    1  UNL1        0.1669
      5 C          64.7189   90.1637   14.8279 C.ar    1  UNL1        0.1131
      6 N          64.6715   88.7600   14.3013 N.ar    1  UNL1       -0.2268
      7 C          63.7333   82.0863   12.9482 C.2     1  UNL1        0.2252
      8 O          63.8921   80.9273   13.8870 O.2     1  UNL1       -0.2749
      9 N          63.7806   83.4900   13.4749 N.am    1  UNL1       -0.2777
     10 C          63.6218   84.6491   12.5361 C.3     1  UNL1        0.1148
     11 C          63.6692   86.0527   13.0628 C.3     1  UNL1        0.1137
     12 N          63.8753   86.2974   14.5283 N.pl3   1  UNL1       -0.2886
     13 C          64.0341   85.1383   15.4671 C.3     1  UNL1        0.1120
     14 C          63.9868   83.7347   14.9404 C.3     1  UNL1        0.0952
     15 C          64.1456   82.5756   15.8792 C.3     1  UNL1        0.0233
     16 C          62.7991   79.5461    9.8711 C.3     1  UNL1        0.0005
     17 C          63.1852   80.9119   10.3565 C.3     1  UNL1        0.0091
     18 C          63.5121   82.3477   10.0708 C.3     1  UNL1        0.0095
     19 C          63.5272   81.8416   11.4828 C.3     1  UNL1        0.0767
     20 C          65.4678   91.2226   14.0743 C.ar    1  UNL1        0.0595
     21 C          66.8647   91.6878   14.3612 C.ar    1  UNL1        0.1232
     22 N          67.2115   92.7550   13.3657 N.ar    1  UNL1       -0.1675
     23 N          66.0289   92.9493   12.4636 N.ar    1  UNL1       -0.2473
     24 C          65.9396   93.9202   11.3237 C.3     1  UNL1        0.1538
     25 C          64.9513   92.0023   12.9016 C.ar    1  UNL1        0.0983
     26 C          64.0647   91.9123   16.6348 C.1     1  UNL1        0.1213
     27 N          64.1121   93.3160   17.1614 N.1     1  UNL1       -0.1892
@<TRIPOS>BOND
     1    17    16    1
     2    17    18    1
     3    18    19    1
     4    19     7    1
     5     7     8    2
     6     7     9   am
     7     9    10    1
     8    10    11    1
     9    11    12    1
    10    12     1    1
    11     1     2   ar
    12     2     3   ar
    13     3     4   ar
    14     4    26    1
    15    26    27    3
    16     4     5   ar
    17     5    20    1
    18    20    21   ar
    19    21    22   ar
    20    22    23   ar
    21    23    24    1
    22    23    25   ar
    23     5     6   ar
    24    12    13    1
    25    13    14    1
    26    14    15    1
    27    19    17    1
    28    14     9    1
    29     6     1   ar
    30    25    20   ar
@<TRIPOS>MOLECULE
*****
 27 30 0 0 0
SMALL
GASTEIGER

@<TRIPOS>ATOM
      1 C          62.3686   89.3706   11.7842 C.ar    1  UNL1        0.1512
      2 C          61.0876   89.9571   11.2695 C.ar    1  UNL1        0.1338
      3 N          60.2684   89.2037   10.2639 N.ar    1  UNL1       -0.2291
      4 C          60.7303   87.8636    9.7729 C.ar    1  UNL1        0.1669
      5 C          62.0113   87.2771   10.2877 C.ar    1  UNL1        0.1131
      6 N          62.8305   88.0306   11.2933 N.ar    1  UNL1       -0.2268
      7 C          65.6453   92.3845   15.8066 C.2     1  UNL1        0.2252
      8 O          65.3587   92.2343   17.2713 O.2     1  UNL1       -0.2749
      9 N          64.8261   91.6310   14.8010 N.am    1  UNL1       -0.2777
     10 C          65.1127   91.7811   13.3363 C.3     1  UNL1        0.1148
     11 C          64.2935   91.0277   12.3307 C.3     1  UNL1        0.1137
     12 N          63.1878   90.1241   12.7898 N.pl3   1  UNL1       -0.2886
     13 C          62.9012   89.9739   14.2545 C.3     1  UNL1        0.1120
     14 C          63.7204   90.7274   15.2601 C.3     1  UNL1        0.0952
     15 C          63.4338   90.5772   16.7248 C.3     1  UNL1        0.0233
     16 C          69.4611   93.8192   16.2254 C.3     1  UNL1        0.0005
     17 C          68.1477   93.8132   15.5008 C.3     1  UNL1        0.0091
     18 C          67.2696   94.3280   14.3991 C.3     1  UNL1        0.0095
     19 C          66.7511   93.2881   15.3475 C.3     1  UNL1        0.0767
     20 C          62.4732   85.9371    9.7967 C.ar    1  UNL1        0.0595
     21 C          62.6153   85.5249    8.3615 C.ar    1  UNL1        0.1232
     22 N          63.1040   84.1070    8.3326 N.ar    1  UNL1       -0.1675
     23 N          63.2640   83.6429    9.7500 N.ar    1  UNL1       -0.2473
     24 C          63.7317   82.2860   10.1859 C.3     1  UNL1        0.1538
     25 C          62.8741   84.7739   10.6548 C.ar    1  UNL1        0.0983
     26 C          59.9111   87.1102    8.7673 C.1     1  UNL1        0.1213
     27 N          59.0920   86.3567    7.7617 N.1     1  UNL1       -0.1892
@<TRIPOS>BOND
     1    17    16    1
     2    17    18    1
     3    18    19    1
     4    19     7    1
     5     7     8    2
     6     7     9   am
     7     9    10    1
     8    10    11    1
     9    11    12    1
    10    12     1    1
    11     1     2   ar
    12     2     3   ar
    13     3     4   ar
    14     4    26    1
    15    26    27    3
    16     4     5   ar
    17     5    20    1
    18    20    21   ar
    19    21    22   ar
    20    22    23   ar
    21    23    24    1
    22    23    25   ar
    23     5     6   ar
    24    12    13    1
    25    13    14    1
    26    14    15    1
    27    19    17    1
    28    14     9    1
    29     6     1   ar
    30    25    20   ar
@<TRIPOS>MOLECULE
*****
 27 30 0 0 0
SMALL
GASTEIGER

@<TRIPOS>ATOM
      1 C          64.2270   90.7101   12.4330 C.ar    1  UNL1        0.1512
      2 C          64.6031   90.4932   13.8687 C.ar    1  UNL1        0.1338
      3 N          65.4913   91.4789   14.5685 N.ar    1  UNL1       -0.2291
      4 C          66.0033   92.6814   13.8325 C.ar    1  UNL1        0.1669
      5 C          65.6271   92.8983   12.3966 C.ar    1  UNL1        0.1131
      6 N          64.7390   91.9126   11.6969 N.ar    1  UNL1       -0.2268
      7 C          60.6743   86.7675    9.6339 C.2     1  UNL1        0.2252
      8 O          60.6828   85.3255   10.0466 O.2     1  UNL1       -0.2749
      9 N          61.5625   87.7532   10.3337 N.am    1  UNL1       -0.2777
     10 C          61.5540   89.1952    9.9210 C.3     1  UNL1        0.1148
     11 C          62.4421   90.1808   10.6207 C.3     1  UNL1        0.1137
     12 N          63.3388   89.7244   11.7332 N.pl3   1  UNL1       -0.2886
     13 C          63.3473   88.2823   12.1459 C.3     1  UNL1        0.1120
     14 C          62.4592   87.2967   11.4462 C.3     1  UNL1        0.0952
     15 C          62.4677   85.8546   11.8589 C.3     1  UNL1        0.0233
     16 C          59.6061   89.6002    6.8719 C.3     1  UNL1        0.0005
     17 C          59.3867   88.2608    7.5105 C.3     1  UNL1        0.0091
     18 C          58.6156   86.9777    7.6055 C.3     1  UNL1        0.0095
     19 C          59.7776   87.2239    8.5214 C.3     1  UNL1        0.0767
     20 C          66.1391   94.1008   11.6606 C.ar    1  UNL1        0.0595
     21 C          66.1537   95.5096   12.1755 C.ar    1  UNL1        0.1232
     22 N          66.7500   96.3852   11.1135 N.ar    1  UNL1       -0.1675
     23 N          67.1040   95.5175    9.9422 N.ar    1  UNL1       -0.2473
     24 C          67.7263   95.9804    8.6583 C.3     1  UNL1        0.1538
     25 C          66.7264   94.1057   10.2803 C.ar    1  UNL1        0.0983
     26 C          66.8915   93.6671   14.5321 C.1     1  UNL1        0.1213
     27 N          67.7796   94.6528   15.2318 N.1     1  UNL1       -0.1892
@<TRIPOS>BOND
     1    17    16    1
     2    17    18    1
     3    18    19    1
     4    19     7    1
     5     7     8    2
     6     7     9   am
     7     9    10    1
     8    10    11    1
     9    11    12    1
    10    12     1    1
    11     1     2   ar
    12     2     3   ar
    13     3     4   ar
    14     4    26    1
    15    26    27    3
    16     4     5   ar
    17     5    20    1
    18    20    21   ar
    19    21    22   ar
    20    22    23   ar
    21    23    24    1
    22    23    25   ar
    23     5     6   ar
    24    12    13    1
    25    13    14    1
    26    14    15    1
    27    19    17    1
    28    14     9    1
    29     6     1   ar
    30    25    20   ar
@<TRIPOS>MOLECULE
*****
 27 30 0 0 0
SMALL
GASTEIGER

@<TRIPOS>ATOM
      1 C          64.3817   89.4822   13.6251 C.ar    1  UNL1        0.1512
      2 C          63.5474   90.1639   12.5814 C.ar    1  UNL1        0.1338
      3 N          63.9459   91.5159   12.0680 N.ar    1  UNL1       -0.2291
      4 C          65.1786   92.1861   12.5983 C.ar    1  UNL1        0.1669
      5 C          66.0129   91.5043   13.6420 C.ar    1  UNL1        0.1131
      6 N          65.6144   90.1524   14.1553 N.ar    1  UNL1       -0.2268
      7 C          62.7880   84.0745   15.6786 C.2     1  UNL1        0.2252
      8 O          62.4627   83.8898   17.1312 O.2     1  UNL1       -0.2749
      9 N          63.1864   85.4264   15.1652 N.am    1  UNL1       -0.2777
     10 C          63.5117   85.6111   13.7126 C.3     1  UNL1        0.1148
     11 C          63.9101   86.9630   13.1993 C.3     1  UNL1        0.1137
     12 N          63.9833   88.1302   14.1385 N.pl3   1  UNL1       -0.2886
     13 C          63.6580   87.9456   15.5911 C.3     1  UNL1        0.1120
     14 C          63.2596   86.5937   16.1044 C.3     1  UNL1        0.0952
     15 C          62.9342   86.4090   17.5571 C.3     1  UNL1        0.0233
     16 C          60.7325   80.8804   14.1403 C.3     1  UNL1        0.0005
     17 C          61.9625   81.7381   14.1763 C.3     1  UNL1        0.0091
     18 C          63.3406   82.0546   13.6757 C.3     1  UNL1        0.0095
     19 C          62.7149   82.9072   14.7394 C.3     1  UNL1        0.0767
     20 C          67.2456   92.1745   14.1722 C.ar    1  UNL1        0.0595
     21 C          68.6534   91.9110   13.7266 C.ar    1  UNL1        0.1232
     22 N          69.5649   92.7995   14.5202 N.ar    1  UNL1       -0.1675
     23 N          68.7204   93.6122   15.4563 N.ar    1  UNL1       -0.2473
     24 C          69.2212   94.6321   16.4356 C.3     1  UNL1        0.1538
     25 C          67.2870   93.2259   15.2413 C.ar    1  UNL1        0.0983
     26 C          65.5770   93.5379   12.0849 C.1     1  UNL1        0.1213
     27 N          65.9755   94.8898   11.5715 N.1     1  UNL1       -0.1892
@<TRIPOS>BOND
     1    17    16    1
     2    17    18    1
     3    18    19    1
     4    19     7    1
     5     7     8    2
     6     7     9   am
     7     9    10    1
     8    10    11    1
     9    11    12    1
    10    12     1    1
    11     1     2   ar
    12     2     3   ar
    13     3     4   ar
    14     4    26    1
    15    26    27    3
    16     4     5   ar
    17     5    20    1
    18    20    21   ar
    19    21    22   ar
    20    22    23   ar
    21    23    24    1
    22    23    25   ar
    23     5     6   ar
    24    12    13    1
    25    13    14    1
    26    14    15    1
    27    19    17    1
    28    14     9    1
    29     6     1   ar
    30    25    20   ar
@<TRIPOS>MOLECULE
*****
 27 30 0 0 0
SMALL
GASTEIGER

@<TRIPOS>ATOM
      1 C          45.7524   76.6933   17.8948 C.ar    1  UNL1        0.1512
      2 C          46.7597   76.9137   18.9841 C.ar    1  UNL1        0.1338
      3 N          47.1545   78.3085   19.3696 N.ar    1  UNL1       -0.2291
      4 C          46.5419   79.4830   18.6657 C.ar    1  UNL1        0.1669
      5 C          45.5345   79.2625   17.5763 C.ar    1  UNL1        0.1131
      6 N          45.1398   77.8677   17.1909 N.ar    1  UNL1       -0.2268
      7 C          44.1732   71.1139   16.3527 C.2     1  UNL1        0.2252
      8 O          43.6331   70.1738   17.3892 O.2     1  UNL1       -0.2749
      9 N          44.5680   72.5088   16.7382 N.am    1  UNL1       -0.2777
     10 C          45.1082   73.4489   15.7017 C.3     1  UNL1        0.1148
     11 C          45.5030   74.8437   16.0873 C.3     1  UNL1        0.1137
     12 N          45.3576   75.2984   17.5093 N.pl3   1  UNL1       -0.2886
     13 C          44.8174   74.3583   18.5458 C.3     1  UNL1        0.1120
     14 C          44.4226   72.9635   18.1602 C.3     1  UNL1        0.0952
     15 C          43.8824   72.0233   19.1968 C.3     1  UNL1        0.0233
     16 C          46.2897   69.1255   13.4613 C.3     1  UNL1        0.0005
     17 C          45.0933   69.9314   13.8724 C.3     1  UNL1        0.0091
     18 C          43.7958   70.5995   13.5261 C.3     1  UNL1        0.0095
     19 C          44.3186   70.6592   14.9307 C.3     1  UNL1        0.0767
     20 C          44.9220   80.4369   16.8724 C.ar    1  UNL1        0.0595
     21 C          44.0043   81.4523   17.4863 C.ar    1  UNL1        0.1232
     22 N          43.6347   82.4451   16.4244 N.ar    1  UNL1       -0.1675
     23 N          44.3239   82.0433   15.1541 N.ar    1  UNL1       -0.2473
     24 C          44.2335   82.7573   13.8380 C.3     1  UNL1        0.1538
     25 C          45.1195   80.8022   15.4311 C.ar    1  UNL1        0.0983
     26 C          46.9367   80.8778   19.0511 C.1     1  UNL1        0.1213
     27 N          47.3314   82.2726   19.4366 N.1     1  UNL1       -0.1892
@<TRIPOS>BOND
     1    17    16    1
     2    17    18    1
     3    18    19    1
     4    19     7    1
     5     7     8    2
     6     7     9   am
     7     9    10    1
     8    10    11    1
     9    11    12    1
    10    12     1    1
    11     1     2   ar
    12     2     3   ar
    13     3     4   ar
    14     4    26    1
    15    26    27    3
    16     4     5   ar
    17     5    20    1
    18    20    21   ar
    19    21    22   ar
    20    22    23   ar
    21    23    24    1
    22    23    25   ar
    23     5     6   ar
    24    12    13    1
    25    13    14    1
    26    14    15    1
    27    19    17    1
    28    14     9    1
    29     6     1   ar
    30    25    20   ar
@<TRIPOS>MOLECULE
*****
 27 30 0 0 0
SMALL
GASTEIGER

@<TRIPOS>ATOM
      1 C          64.2184   88.6330   14.3159 C.ar    1  UNL1        0.1512
      2 C          63.9604   88.2762   15.7498 C.ar    1  UNL1        0.1338
      3 N          63.4522   86.9098   16.1030 N.ar    1  UNL1       -0.2291
      4 C          63.2021   85.9001   15.0222 C.ar    1  UNL1        0.1669
      5 C          63.4602   86.2570   13.5882 C.ar    1  UNL1        0.1131
      6 N          63.9683   87.6234   13.2351 N.ar    1  UNL1       -0.2268
      7 C          66.2510   94.0986   12.9031 C.2     1  UNL1        0.2252
      8 O          66.9631   94.9235   13.9338 O.2     1  UNL1       -0.2749
      9 N          65.7428   92.7322   13.2563 N.am    1  UNL1       -0.2777
     10 C          65.0306   91.9073   12.2256 C.3     1  UNL1        0.1148
     11 C          64.5225   90.5409   12.5788 C.3     1  UNL1        0.1137
     12 N          64.7266   89.9994   13.9627 N.pl3   1  UNL1       -0.2886
     13 C          65.4388   90.8243   14.9934 C.3     1  UNL1        0.1120
     14 C          65.9469   92.1907   14.6402 C.3     1  UNL1        0.0952
     15 C          66.6591   93.0156   15.6709 C.3     1  UNL1        0.0233
     16 C          67.3725   94.2911    8.9662 C.3     1  UNL1        0.0005
     17 C          66.4574   94.7106   10.0782 C.3     1  UNL1        0.0091
     18 C          65.2829   95.5076   10.5633 C.3     1  UNL1        0.0095
     19 C          66.0469   94.6401   11.5192 C.3     1  UNL1        0.0767
     20 C          63.2101   85.2473   12.5074 C.ar    1  UNL1        0.0595
     21 C          62.1766   85.3518   11.4253 C.ar    1  UNL1        0.1232
     22 N          62.2774   84.1250   10.5681 N.ar    1  UNL1       -0.1675
     23 N          63.3731   83.2623   11.1204 N.ar    1  UNL1       -0.2473
     24 C          63.8149   81.9384   10.5707 C.3     1  UNL1        0.1538
     25 C          63.9496   83.9560   12.3190 C.ar    1  UNL1        0.0983
     26 C          62.6940   84.5338   15.3753 C.1     1  UNL1        0.1213
     27 N          62.1859   83.1674   15.7284 N.1     1  UNL1       -0.1892
@<TRIPOS>BOND
     1    17    16    1
     2    17    18    1
     3    18    19    1
     4    19     7    1
     5     7     8    2
     6     7     9   am
     7     9    10    1
     8    10    11    1
     9    11    12    1
    10    12     1    1
    11     1     2   ar
    12     2     3   ar
    13     3     4   ar
    14     4    26    1
    15    26    27    3
    16     4     5   ar
    17     5    20    1
    18    20    21   ar
    19    21    22   ar
    20    22    23   ar
    21    23    24    1
    22    23    25   ar
    23     5     6   ar
    24    12    13    1
    25    13    14    1
    26    14    15    1
    27    19    17    1
    28    14     9    1
    29     6     1   ar
    30    25    20   ar
@<TRIPOS>MOLECULE
*****
 27 30 0 0 0
SMALL
GASTEIGER

@<TRIPOS>ATOM
      1 C          62.6136   89.8410   10.2545 C.ar    1  UNL1        0.1512
      2 C          61.3884   90.2296    9.4815 C.ar    1  UNL1        0.1338
      3 N          60.5203   89.1703    8.8695 N.ar    1  UNL1       -0.2291
      4 C          60.8777   87.7225    9.0305 C.ar    1  UNL1        0.1669
      5 C          62.1030   87.3339    9.8036 C.ar    1  UNL1        0.1131
      6 N          62.9710   88.3931   10.4156 N.ar    1  UNL1       -0.2268
      7 C          66.0857   94.0781   12.7025 C.2     1  UNL1        0.2252
      8 O          66.6099   93.9048   14.0971 O.2     1  UNL1       -0.2749
      9 N          65.2176   93.0188   12.0905 N.am    1  UNL1       -0.2777
     10 C          64.6934   93.1922   10.6958 C.3     1  UNL1        0.1148
     11 C          63.8254   92.1329   10.0839 C.3     1  UNL1        0.1137
     12 N          63.4817   90.9003   10.8666 N.pl3   1  UNL1       -0.2886
     13 C          64.0059   90.7270   12.2612 C.3     1  UNL1        0.1120
     14 C          64.8739   91.7863   12.8731 C.3     1  UNL1        0.0952
     15 C          65.3982   91.6130   14.2679 C.3     1  UNL1        0.0233
     16 C          67.4350   95.8299    9.2522 C.3     1  UNL1        0.0005
     17 C          66.9233   95.9519   10.6569 C.3     1  UNL1        0.0091
     18 C          66.5308   96.8044   11.8270 C.3     1  UNL1        0.0095
     19 C          66.4294   95.3107   11.9198 C.3     1  UNL1        0.0767
     20 C          62.4604   85.8860    9.9646 C.ar    1  UNL1        0.0595
     21 C          63.1163   85.0195    8.9308 C.ar    1  UNL1        0.1232
     22 N          63.2859   83.6483    9.5150 N.ar    1  UNL1       -0.1675
     23 N          62.7347   83.6674   10.9099 N.ar    1  UNL1       -0.2473
     24 C          62.6998   82.5073   11.8601 C.3     1  UNL1        0.1538
     25 C          62.2245   85.0504   11.1878 C.ar    1  UNL1        0.0983
     26 C          60.0097   86.6632    8.4186 C.1     1  UNL1        0.1213
     27 N          59.1418   85.6039    7.8066 N.1     1  UNL1       -0.1892
@<TRIPOS>BOND
     1    17    16    1
     2    17    18    1
     3    18    19    1
     4    19     7    1
     5     7     8    2
     6     7     9   am
     7     9    10    1
     8    10    11    1
     9    11    12    1
    10    12     1    1
    11     1     2   ar
    12     2     3   ar
    13     3     4   ar
    14     4    26    1
    15    26    27    3
    16     4     5   ar
    17     5    20    1
    18    20    21   ar
    19    21    22   ar
    20    22    23   ar
    21    23    24    1
    22    23    25   ar
    23     5     6   ar
    24    12    13    1
    25    13    14    1
    26    14    15    1
    27    19    17    1
    28    14     9    1
    29     6     1   ar
    30    25    20   ar
