@<TRIPOS>MOLECULE
*****
 13 14 0 0 0
SMALL
GASTEIGER

@<TRIPOS>ATOM
      1 C          63.4211   84.2079   13.6427 C.ar    1  UNL1        0.0250
      2 C          64.3022   84.4958   14.8220 C.ar    1  UNL1        0.0060
      3 C          64.7249   85.9046   15.1161 C.ar    1  UNL1        0.0497
      4 C          64.2664   87.0255   14.2310 C.ar    1  UNL1        0.2223
      5 F          64.6892   88.4344   14.5252 F       1  UNL1       -0.1832
      6 N          63.3853   86.7376   13.0517 N.ar    1  UNL1       -0.2164
      7 C          62.9626   85.3288   12.7576 C.ar    1  UNL1        0.1017
      8 C          64.2449   82.4686   11.0072 C.3     1  UNL1        0.0316
      9 C          63.3770   81.9997   12.1371 C.ar    1  UNL1       -0.0153
     10 C          62.7354   80.6488   12.2540 C.ar    1  UNL1        0.0032
     11 C          61.9602   80.6134   13.5377 C.ar    1  UNL1        0.0351
     12 S          62.1227   81.9423   14.2141 S.2     1  UNL1       -0.0867
     13 C          62.9983   82.7991   13.3485 C.ar    1  UNL1        0.0270
@<TRIPOS>BOND
     1     8     9    1
     2     9    10   ar
     3    10    11   ar
     4    11    12   ar
     5    12    13   ar
     6    13     1    1
     7     1     2   ar
     8     2     3   ar
     9     3     4   ar
    10     4     5    1
    11     4     6   ar
    12     6     7   ar
    13    13     9   ar
    14     7     1   ar
@<TRIPOS>MOLECULE
*****
 13 14 0 0 0
SMALL
GASTEIGER

@<TRIPOS>ATOM
      1 C          61.8496   88.0217   10.2472 C.ar    1  UNL1        0.0250
      2 C          62.1161   89.4898   10.0938 C.ar    1  UNL1        0.0060
      3 C          62.9035   90.2224   11.1394 C.ar    1  UNL1        0.0497
      4 C          63.4243   89.4868   12.3385 C.ar    1  UNL1        0.2223
      5 F          64.2117   90.2194   13.3841 F       1  UNL1       -0.1832
      6 N          63.1578   88.0187   12.4918 N.ar    1  UNL1       -0.2164
      7 C          62.3704   87.2862   11.4462 C.ar    1  UNL1        0.1017
      8 C          62.9074   85.5007    8.4651 C.3     1  UNL1        0.0316
      9 C          61.5484   86.1304    8.3824 C.ar    1  UNL1       -0.0153
     10 C          60.4371   85.7118    7.4660 C.ar    1  UNL1        0.0032
     11 C          59.2640   86.6118    7.7188 C.ar    1  UNL1        0.0351
     12 S          59.6504   87.5867    8.7913 S.2     1  UNL1       -0.0867
     13 C          61.0622   87.2891    9.2015 C.ar    1  UNL1        0.0270
@<TRIPOS>BOND
     1     8     9    1
     2     9    10   ar
     3    10    11   ar
     4    11    12   ar
     5    12    13   ar
     6    13     1    1
     7     1     2   ar
     8     2     3   ar
     9     3     4   ar
    10     4     5    1
    11     4     6   ar
    12     6     7   ar
    13    13     9   ar
    14     7     1   ar
@<TRIPOS>MOLECULE
*****
 13 14 0 0 0
SMALL
GASTEIGER

@<TRIPOS>ATOM
      1 C          63.1469   84.4477   14.6048 C.ar    1  UNL1        0.0250
      2 C          64.1598   85.5506   14.5169 C.ar    1  UNL1        0.0060
      3 C          64.1761   86.6379   15.5500 C.ar    1  UNL1        0.0497
      4 C          63.1795   86.6225   16.6709 C.ar    1  UNL1        0.2223
      5 F          63.1959   87.7100   17.7040 F       1  UNL1       -0.1832
      6 N          62.1666   85.5197   16.7588 N.ar    1  UNL1       -0.2164
      7 C          62.1503   84.4323   15.7258 C.ar    1  UNL1        0.1017
      8 C          62.4493   84.8200   11.4387 C.3     1  UNL1        0.0316
      9 C          62.8099   83.5314   12.1165 C.ar    1  UNL1       -0.0153
     10 C          62.9132   82.1877   11.4579 C.ar    1  UNL1        0.0032
     11 C          63.2977   81.1860   12.5062 C.ar    1  UNL1        0.0351
     12 S          63.4320   81.9107   13.8126 S.2     1  UNL1       -0.0867
     13 C          63.1306   83.3603   13.5717 C.ar    1  UNL1        0.0270
@<TRIPOS>BOND
     1     8     9    1
     2     9    10   ar
     3    10    11   ar
     4    11    12   ar
     5    12    13   ar
     6    13     1    1
     7     1     2   ar
     8     2     3   ar
     9     3     4   ar
    10     4     5    1
    11     4     6   ar
    12     6     7   ar
    13    13     9   ar
    14     7     1   ar
@<TRIPOS>MOLECULE
*****
 13 14 0 0 0
SMALL
GASTEIGER

@<TRIPOS>ATOM
      1 C          66.0621   92.6857   12.0064 C.ar    1  UNL1        0.0250
      2 C          66.8763   92.3858   13.2300 C.ar    1  UNL1        0.0060
      3 C          66.3583   91.4245   14.2583 C.ar    1  UNL1        0.0497
      4 C          65.0263   90.7630   14.0631 C.ar    1  UNL1        0.2223
      5 F          64.5084   89.8016   15.0915 F       1  UNL1       -0.1832
      6 N          64.2122   91.0628   12.8394 N.ar    1  UNL1       -0.2164
      7 C          64.7301   92.0242   11.8111 C.ar    1  UNL1        0.1017
      8 C          68.1858   91.9905    9.6280 C.3     1  UNL1        0.0316
      9 C          67.5561   93.3275    9.8847 C.ar    1  UNL1       -0.0153
     10 C          67.7921   94.5797    9.0934 C.ar    1  UNL1        0.0032
     11 C          66.9618   95.6732    9.6975 C.ar    1  UNL1        0.0351
     12 S          66.2127   95.0968   10.8622 S.2     1  UNL1       -0.0867
     13 C          66.5800   93.6471   10.9779 C.ar    1  UNL1        0.0270
@<TRIPOS>BOND
     1     8     9    1
     2     9    10   ar
     3    10    11   ar
     4    11    12   ar
     5    12    13   ar
     6    13     1    1
     7     1     2   ar
     8     2     3   ar
     9     3     4   ar
    10     4     5    1
    11     4     6   ar
    12     6     7   ar
    13    13     9   ar
    14     7     1   ar
@<TRIPOS>MOLECULE
*****
 13 14 0 0 0
SMALL
GASTEIGER

@<TRIPOS>ATOM
      1 C          62.1783   85.9350    9.9378 C.ar    1  UNL1        0.0250
      2 C          63.0160   85.2052    8.9301 C.ar    1  UNL1        0.0060
      3 C          63.7552   83.9623    9.3284 C.ar    1  UNL1        0.0497
      4 C          63.6567   83.4493   10.7345 C.ar    1  UNL1        0.2223
      5 F          64.3960   82.2063   11.1328 F       1  UNL1       -0.1832
      6 N          62.8191   84.1791   11.7423 N.ar    1  UNL1       -0.2164
      7 C          62.0798   85.4220   11.3439 C.ar    1  UNL1        0.1017
      8 C          59.8168   86.1264    7.6936 C.3     1  UNL1        0.0316
      9 C          60.3536   87.2659    8.5080 C.ar    1  UNL1       -0.0153
     10 C          59.8992   88.6935    8.4338 C.ar    1  UNL1        0.0032
     11 C          60.7038   89.4879    9.4195 C.ar    1  UNL1        0.0351
     12 S          61.6555   88.5513   10.1028 S.2     1  UNL1       -0.0867
     13 C          61.4390   87.1780    9.5395 C.ar    1  UNL1        0.0270
@<TRIPOS>BOND
     1     8     9    1
     2     9    10   ar
     3    10    11   ar
     4    11    12   ar
     5    12    13   ar
     6    13     1    1
     7     1     2   ar
     8     2     3   ar
     9     3     4   ar
    10     4     5    1
    11     4     6   ar
    12     6     7   ar
    13    13     9   ar
    14     7     1   ar
@<TRIPOS>MOLECULE
*****
 13 14 0 0 0
SMALL
GASTEIGER

@<TRIPOS>ATOM
      1 C          62.8288   84.4676   12.6614 C.ar    1  UNL1        0.0250
      2 C          62.2155   85.1127   11.4541 C.ar    1  UNL1        0.0060
      3 C          62.3361   86.5941   11.2526 C.ar    1  UNL1        0.0497
      4 C          63.0700   87.4305   12.2585 C.ar    1  UNL1        0.2223
      5 F          63.1906   88.9121   12.0570 F       1  UNL1       -0.1832
      6 N          63.6833   86.7855   13.4658 N.ar    1  UNL1       -0.2164
      7 C          63.5627   85.3040   13.6673 C.ar    1  UNL1        0.1017
      8 C          63.7234   82.1628   10.5312 C.3     1  UNL1        0.0316
      9 C          63.1194   81.9267   11.8838 C.ar    1  UNL1       -0.0153
     10 C          62.8205   80.5897   12.4947 C.ar    1  UNL1        0.0032
     11 C          62.2246   80.8227   13.8514 C.ar    1  UNL1        0.0351
     12 S          62.1552   82.3037   14.0790 S.2     1  UNL1       -0.0867
     13 C          62.7082   82.9860   12.8629 C.ar    1  UNL1        0.0270
@<TRIPOS>BOND
     1     8     9    1
     2     9    10   ar
     3    10    11   ar
     4    11    12   ar
     5    12    13   ar
     6    13     1    1
     7     1     2   ar
     8     2     3   ar
     9     3     4   ar
    10     4     5    1
    11     4     6   ar
    12     6     7   ar
    13    13     9   ar
    14     7     1   ar
@<TRIPOS>MOLECULE
*****
 13 14 0 0 0
SMALL
GASTEIGER

@<TRIPOS>ATOM
      1 C          62.1009   85.6900    9.9490 C.ar    1  UNL1        0.0250
      2 C          63.0216   84.8775    9.0876 C.ar    1  UNL1        0.0060
      3 C          63.8695   83.8031    9.7014 C.ar    1  UNL1        0.0497
      4 C          63.7966   83.5412   11.1766 C.ar    1  UNL1        0.2223
      5 F          64.6445   82.4667   11.7903 F       1  UNL1       -0.1832
      6 N          62.8758   84.3537   12.0380 N.ar    1  UNL1       -0.2164
      7 C          62.0280   85.4281   11.4242 C.ar    1  UNL1        0.1017
      8 C          62.3858   88.8970   10.4815 C.3     1  UNL1        0.0316
      9 C          61.3840   88.2385    9.5800 C.ar    1  UNL1       -0.0153
     10 C          60.3372   88.9385    8.7650 C.ar    1  UNL1        0.0032
     11 C          59.5592   87.8971    8.0165 C.ar    1  UNL1        0.0351
     12 S          60.1252   86.5534    8.3690 S.2     1  UNL1       -0.0867
     13 C          61.2530   86.7645    9.3353 C.ar    1  UNL1        0.0270
@<TRIPOS>BOND
     1     8     9    1
     2     9    10   ar
     3    10    11   ar
     4    11    12   ar
     5    12    13   ar
     6    13     1    1
     7     1     2   ar
     8     2     3   ar
     9     3     4   ar
    10     4     5    1
    11     4     6   ar
    12     6     7   ar
    13    13     9   ar
    14     7     1   ar
@<TRIPOS>MOLECULE
*****
 13 14 0 0 0
SMALL
GASTEIGER

@<TRIPOS>ATOM
      1 C          61.9377   86.7939   10.9344 C.ar    1  UNL1        0.0250
      2 C          62.6509   87.9802   11.5123 C.ar    1  UNL1        0.0060
      3 C          61.9734   89.3179   11.5490 C.ar    1  UNL1        0.0497
      4 C          60.5826   89.4694   11.0078 C.ar    1  UNL1        0.2223
      5 F          59.9051   90.8072   11.0445 F       1  UNL1       -0.1832
      6 N          59.8694   88.2831   10.4299 N.ar    1  UNL1       -0.2164
      7 C          60.5470   86.9453   10.3932 C.ar    1  UNL1        0.1017
      8 C          63.0681   85.2887    8.2686 C.3     1  UNL1        0.0316
      9 C          63.1348   84.7643    9.6724 C.ar    1  UNL1       -0.0153
     10 C          63.7328   83.4559   10.0973 C.ar    1  UNL1        0.0032
     11 C          63.5829   83.3391   11.5852 C.ar    1  UNL1        0.0351
     12 S          62.8922   84.5753   12.0799 S.2     1  UNL1       -0.0867
     13 C          62.6153   85.4561   10.8977 C.ar    1  UNL1        0.0270
@<TRIPOS>BOND
     1     8     9    1
     2     9    10   ar
     3    10    11   ar
     4    11    12   ar
     5    12    13   ar
     6    13     1    1
     7     1     2   ar
     8     2     3   ar
     9     3     4   ar
    10     4     5    1
    11     4     6   ar
    12     6     7   ar
    13    13     9   ar
    14     7     1   ar
@<TRIPOS>MOLECULE
*****
 13 14 0 0 0
SMALL
GASTEIGER

@<TRIPOS>ATOM
      1 C          62.6630   84.9043   11.2947 C.ar    1  UNL1        0.0250
      2 C          63.3251   84.5186   10.0053 C.ar    1  UNL1        0.0060
      3 C          62.8149   85.0688    8.7064 C.ar    1  UNL1        0.0497
      4 C          61.6426   86.0046    8.6971 C.ar    1  UNL1        0.2223
      5 F          61.1325   86.5547    7.3981 F       1  UNL1       -0.1832
      6 N          60.9805   86.3902    9.9865 N.ar    1  UNL1       -0.2164
      7 C          61.4907   85.8401   11.2854 C.ar    1  UNL1        0.1017
      8 C          62.6167   81.7695   12.2005 C.3     1  UNL1        0.0316
      9 C          63.1519   82.9133   13.0100 C.ar    1  UNL1       -0.0153
     10 C          63.7597   82.8170   14.3779 C.ar    1  UNL1        0.0032
     11 C          64.1566   84.1984   14.8071 C.ar    1  UNL1        0.0351
     12 S          63.7941   85.1484   13.7044 S.2     1  UNL1       -0.0867
     13 C          63.1731   84.3542   12.5937 C.ar    1  UNL1        0.0270
@<TRIPOS>BOND
     1     8     9    1
     2     9    10   ar
     3    10    11   ar
     4    11    12   ar
     5    12    13   ar
     6    13     1    1
     7     1     2   ar
     8     2     3   ar
     9     3     4   ar
    10     4     5    1
    11     4     6   ar
    12     6     7   ar
    13    13     9   ar
    14     7     1   ar
