@<TRIPOS>MOLECULE
*****
 28 31 0 0 0
SMALL
GASTEIGER

@<TRIPOS>ATOM
      1 C          62.2660   84.8460    7.9720 C.3     1  UNL1        0.0491
      2 C          62.5714   85.4878    9.2930 C.3     1  UNL1        0.1855
      3 C          62.5151   86.9577    8.9994 C.3     1  UNL1        0.1335
      4 N          62.6178   88.3981    9.4053 N.am    1  UNL1       -0.2975
      5 C          62.8560   89.4790   10.4177 C.2     1  UNL1        0.2505
      6 O          62.6869   90.7475    9.6352 O.2     1  UNL1       -0.2700
      7 C          63.1752   89.9527   11.8048 C.ar    1  UNL1        0.1099
      8 C          63.2290   91.4397   11.9945 C.ar    1  UNL1        0.1281
      9 N          63.5583   91.7119   13.4323 N.ar    1  UNL1       -0.1619
     10 N          63.7079   90.3931   14.1313 N.ar    1  UNL1       -0.2104
     11 C          64.0292   90.0419   15.5537 C.ar    1  UNL1        0.1049
     12 C          64.1137   88.6034   15.9703 C.ar    1  UNL1        0.0548
     13 C          63.8770   87.5161   14.9644 C.ar    1  UNL1        0.1319
     14 N          63.5557   87.8674   13.5419 N.ar    1  UNL1       -0.2118
     15 C          63.4711   89.3059   13.1254 C.ar    1  UNL1        0.1710
     16 N          63.8712   85.9542   14.9884 N.pl3   1  UNL1       -0.3159
     17 C          63.6957   84.6559   14.2581 C.3     1  UNL1        0.0960
     18 C          63.9285   83.6158   15.3136 C.3     1  UNL1        0.0262
     19 C          63.4087   83.8554   13.0224 C.ar    1  UNL1        0.0317
     20 C          63.5891   82.6201   13.8541 C.ar    1  UNL1        0.0300
     21 C          63.4369   81.2655   13.2281 C.ar    1  UNL1        0.1401
     22 F          63.6174   80.0303   14.0598 F       1  UNL1       -0.2042
     23 C          63.1042   81.1462   11.7703 C.ar    1  UNL1        0.0327
     24 C          62.9237   82.3814   10.9387 C.ar    1  UNL1        0.0389
     25 C          63.0760   83.7359   11.5648 C.ar    1  UNL1        0.1361
     26 O          62.7738   84.3251   10.2188 O.3     1  UNL1       -0.4777
     27 H          62.4320   88.8910    8.5736 H       1  UNL1        0.1499
     28 H          64.0810   85.7057   15.9177 H       1  UNL1        0.1484
@<TRIPOS>BOND
     1     2     1    1
     2     2     3    1
     3     3     4    1
     4     4     5   am
     5     5     6    2
     6     5     7    1
     7     7     8   ar
     8     8     9   ar
     9     9    10   ar
    10    10    11   ar
    11    11    12   ar
    12    12    13   ar
    13    13    14   ar
    14    14    15   ar
    15    13    16    1
    16    16    17    1
    17    17    18    1
    18    17    19    1
    19    19    20   ar
    20    20    21   ar
    21    21    22    1
    22    21    23   ar
    23    23    24   ar
    24    24    25   ar
    25    25    26    1
    26    26     2    1
    27    15     7   ar
    28    25    19   ar
    29    15    10   ar
    30     4    27    1
    31    16    28    1
@<TRIPOS>MOLECULE
*****
 28 31 0 0 0
SMALL
GASTEIGER

@<TRIPOS>ATOM
      1 C          59.4250   92.7412    2.4705 C.3     1  UNL1        0.0491
      2 C          60.1493   93.3057    1.2844 C.3     1  UNL1        0.1855
      3 C          61.4449   93.7996    1.8568 C.3     1  UNL1        0.1335
      4 N          62.7903   94.4505    1.7304 N.am    1  UNL1       -0.2975
      5 C          63.8775   95.1095    0.9342 C.2     1  UNL1        0.2505
      6 O          64.9376   95.4082    1.9526 O.2     1  UNL1       -0.2700
      7 C          64.4573   95.6254   -0.3494 C.ar    1  UNL1        0.1099
      8 C          65.8211   96.2422   -0.2526 C.ar    1  UNL1        0.1281
      9 N          66.2244   96.6929   -1.6253 N.ar    1  UNL1       -0.1619
     10 N          65.1098   96.3548   -2.5704 N.ar    1  UNL1       -0.2104
     11 C          64.9483   96.5624   -4.0471 C.ar    1  UNL1        0.1049
     12 C          63.6946   96.1102   -4.7353 C.ar    1  UNL1        0.0548
     13 C          62.6024   95.4504   -3.9468 C.ar    1  UNL1        0.1319
     14 N          62.7639   95.2428   -2.4701 N.ar    1  UNL1       -0.2118
     15 C          64.0176   95.6950   -1.7819 C.ar    1  UNL1        0.1710
     16 N          61.1942   94.8563   -4.2698 N.pl3   1  UNL1       -0.3159
     17 C          59.9415   94.1818   -3.7947 C.3     1  UNL1        0.0960
     18 C          59.1176   94.0365   -5.0398 C.3     1  UNL1        0.0262
     19 C          59.0831   93.5768   -2.7236 C.ar    1  UNL1        0.0317
     20 C          58.0585   93.3026   -3.7843 C.ar    1  UNL1        0.0300
     21 C          56.7664   92.6316   -3.4234 C.ar    1  UNL1        0.1401
     22 F          55.7417   92.3575   -4.4840 F       1  UNL1       -0.2042
     23 C          56.4990   92.2348   -2.0017 C.ar    1  UNL1        0.0327
     24 C          57.5236   92.5089   -0.9411 C.ar    1  UNL1        0.0389
     25 C          58.8157   93.1799   -1.3021 C.ar    1  UNL1        0.1361
     26 O          59.2004   93.0821    0.1444 O.3     1  UNL1       -0.4777
     27 H          63.1445   94.4396    2.6489 H       1  UNL1        0.1499
     28 H          61.0715   94.9846   -5.2382 H       1  UNL1        0.1484
@<TRIPOS>BOND
     1     2     1    1
     2     2     3    1
     3     3     4    1
     4     4     5   am
     5     5     6    2
     6     5     7    1
     7     7     8   ar
     8     8     9   ar
     9     9    10   ar
    10    10    11   ar
    11    11    12   ar
    12    12    13   ar
    13    13    14   ar
    14    14    15   ar
    15    13    16    1
    16    16    17    1
    17    17    18    1
    18    17    19    1
    19    19    20   ar
    20    20    21   ar
    21    21    22    1
    22    21    23   ar
    23    23    24   ar
    24    24    25   ar
    25    25    26    1
    26    26     2    1
    27    15     7   ar
    28    25    19   ar
    29    15    10   ar
    30     4    27    1
    31    16    28    1
@<TRIPOS>MOLECULE
*****
 28 31 0 0 0
SMALL
GASTEIGER

@<TRIPOS>ATOM
      1 C          64.6302   94.9970   -4.1407 C.3     1  UNL1        0.0491
      2 C          63.2539   94.5646   -3.7299 C.3     1  UNL1        0.1855
      3 C          62.4359   94.7404   -4.9749 C.3     1  UNL1        0.1335
      4 N          61.1466   94.6690   -5.7381 N.am    1  UNL1       -0.2975
      5 C          59.6812   94.3668   -5.8447 C.2     1  UNL1        0.2505
      6 O          59.3475   94.7044   -7.2676 O.2     1  UNL1       -0.2700
      7 C          58.3755   93.9029   -5.2701 C.ar    1  UNL1        0.1099
      8 C          57.2057   93.9098   -6.2091 C.ar    1  UNL1        0.1281
      9 N          56.0048   93.4180   -5.4569 N.ar    1  UNL1       -0.1619
     10 N          56.4322   93.1073   -4.0530 N.ar    1  UNL1       -0.2104
     11 C          55.6766   92.5902   -2.8650 C.ar    1  UNL1        0.1049
     12 C          56.3862   92.3727   -1.5615 C.ar    1  UNL1        0.0548
     13 C          57.8514   92.6724   -1.4461 C.ar    1  UNL1        0.1319
     14 N          58.6071   93.1895   -2.6341 N.ar    1  UNL1       -0.2118
     15 C          57.8975   93.4069   -3.9376 C.ar    1  UNL1        0.1710
     16 N          58.9231   92.5867   -0.3127 N.pl3   1  UNL1       -0.3159
     17 C          60.3416   92.7791    0.1352 C.3     1  UNL1        0.0960
     18 C          60.3241   92.3568    1.5745 C.3     1  UNL1        0.0262
     19 C          61.7686   93.1736   -0.1058 C.ar    1  UNL1        0.0317
     20 C          62.0445   92.8204    1.3256 C.ar    1  UNL1        0.0300
     21 C          63.4289   92.9734    1.8825 C.ar    1  UNL1        0.1401
     22 F          63.7048   92.6201    3.3140 F       1  UNL1       -0.2042
     23 C          64.5374   93.4796    1.0079 C.ar    1  UNL1        0.0327
     24 C          64.2614   93.8329   -0.4236 C.ar    1  UNL1        0.0389
     25 C          62.8770   93.6799   -0.9804 C.ar    1  UNL1        0.1361
     26 O          63.4131   94.1819   -2.2883 O.3     1  UNL1       -0.4777
     27 H          61.3879   94.9856   -6.6385 H       1  UNL1        0.1499
     28 H          58.4427   92.2479    0.4771 H       1  UNL1        0.1484
@<TRIPOS>BOND
     1     2     1    1
     2     2     3    1
     3     3     4    1
     4     4     5   am
     5     5     6    2
     6     5     7    1
     7     7     8   ar
     8     8     9   ar
     9     9    10   ar
    10    10    11   ar
    11    11    12   ar
    12    12    13   ar
    13    13    14   ar
    14    14    15   ar
    15    13    16    1
    16    16    17    1
    17    17    18    1
    18    17    19    1
    19    19    20   ar
    20    20    21   ar
    21    21    22    1
    22    21    23   ar
    23    23    24   ar
    24    24    25   ar
    25    25    26    1
    26    26     2    1
    27    15     7   ar
    28    25    19   ar
    29    15    10   ar
    30     4    27    1
    31    16    28    1
@<TRIPOS>MOLECULE
*****
 28 31 0 0 0
SMALL
GASTEIGER

@<TRIPOS>ATOM
      1 C          63.4085   85.5305   17.8970 C.3     1  UNL1        0.0491
      2 C          63.2545   86.0011   16.4811 C.3     1  UNL1        0.1855
      3 C          63.3722   87.4930   16.5839 C.3     1  UNL1        0.1335
      4 N          63.3892   88.8683   15.9856 N.am    1  UNL1       -0.2975
      5 C          63.3017   89.8122   14.8230 C.2     1  UNL1        0.2505
      6 O          63.4782   91.1656   15.4453 O.2     1  UNL1       -0.2700
      7 C          63.1297   90.1082   13.3626 C.ar    1  UNL1        0.1099
      8 C          63.1798   91.5567   12.9760 C.ar    1  UNL1        0.1281
      9 N          62.9902   91.6469   11.4908 N.ar    1  UNL1       -0.1619
     10 N          62.8229   90.2542   10.9594 N.ar    1  UNL1       -0.2104
     11 C          62.6033   89.7291    9.5716 C.ar    1  UNL1        0.1049
     12 C          62.4698   88.2530    9.3407 C.ar    1  UNL1        0.0548
     13 C          62.5561   87.3020   10.4975 C.ar    1  UNL1        0.1319
     14 N          62.7757   87.8272   11.8853 N.ar    1  UNL1       -0.2118
     15 C          62.9092   89.3032   12.1162 C.ar    1  UNL1        0.1710
     16 N          62.4719   85.7527   10.6784 N.pl3   1  UNL1       -0.3159
     17 C          62.5081   84.5584   11.5851 C.3     1  UNL1        0.0960
     18 C          62.3048   83.3971   10.6577 C.3     1  UNL1        0.0262
     19 C          62.6418   83.9200   12.9359 C.ar    1  UNL1        0.0317
     20 C          62.4601   82.5934   12.2598 C.ar    1  UNL1        0.0300
     21 C          62.4787   81.3304   13.0687 C.ar    1  UNL1        0.1401
     22 F          62.2969   80.0038   12.3926 F       1  UNL1       -0.2042
     23 C          62.6790   81.3940   14.5539 C.ar    1  UNL1        0.0327
     24 C          62.8607   82.7205   15.2301 C.ar    1  UNL1        0.0389
     25 C          62.8421   83.9835   14.4210 C.ar    1  UNL1        0.1361
     26 O          63.0632   84.7346   15.7005 O.3     1  UNL1       -0.4777
     27 H          63.5325   89.4601   16.7592 H       1  UNL1        0.1499
     28 H          62.3274   85.3908    9.7742 H       1  UNL1        0.1484
@<TRIPOS>BOND
     1     2     1    1
     2     2     3    1
     3     3     4    1
     4     4     5   am
     5     5     6    2
     6     5     7    1
     7     7     8   ar
     8     8     9   ar
     9     9    10   ar
    10    10    11   ar
    11    11    12   ar
    12    12    13   ar
    13    13    14   ar
    14    14    15   ar
    15    13    16    1
    16    16    17    1
    17    17    18    1
    18    17    19    1
    19    19    20   ar
    20    20    21   ar
    21    21    22    1
    22    21    23   ar
    23    23    24   ar
    24    24    25   ar
    25    25    26    1
    26    26     2    1
    27    15     7   ar
    28    25    19   ar
    29    15    10   ar
    30     4    27    1
    31    16    28    1
@<TRIPOS>MOLECULE
*****
 28 31 0 0 0
SMALL
GASTEIGER

@<TRIPOS>ATOM
      1 C          65.3621   95.0944    0.2526 C.3     1  UNL1        0.0491
      2 C          64.1916   94.9074   -0.6667 C.3     1  UNL1        0.1855
      3 C          64.7039   95.3694   -1.9987 C.3     1  UNL1        0.1335
      4 N          64.5386   95.6360   -3.4654 N.am    1  UNL1       -0.2975
      5 C          63.7336   95.6463   -4.7311 C.2     1  UNL1        0.2505
      6 O          64.6849   96.1868   -5.7573 O.2     1  UNL1       -0.2700
      7 C          62.4733   95.3977   -5.5057 C.ar    1  UNL1        0.1099
      8 C          62.5233   95.7345   -6.9665 C.ar    1  UNL1        0.1281
      9 N          61.1825   95.4198   -7.5609 N.ar    1  UNL1       -0.1619
     10 N          60.3039   94.8886   -6.4674 N.ar    1  UNL1       -0.2104
     11 C          58.8804   94.4155   -6.4642 C.ar    1  UNL1        0.1049
     12 C          58.2548   93.9288   -5.1908 C.ar    1  UNL1        0.0548
     13 C          59.0525   93.9152   -3.9206 C.ar    1  UNL1        0.1319
     14 N          60.4759   94.3882   -3.9238 N.ar    1  UNL1       -0.2118
     15 C          61.1016   94.8749   -5.1972 C.ar    1  UNL1        0.1710
     16 N          58.7850   93.5015   -2.4381 N.pl3   1  UNL1       -0.3159
     17 C          59.2846   93.3589   -1.0311 C.3     1  UNL1        0.0960
     18 C          58.1065   92.8047   -0.2862 C.3     1  UNL1        0.0262
     19 C          60.3483   93.4816    0.0195 C.ar    1  UNL1        0.0317
     20 C          59.3550   92.9366    1.0025 C.ar    1  UNL1        0.0300
     21 C          59.7454   92.7513    2.4389 C.ar    1  UNL1        0.1401
     22 F          58.7521   92.2063    3.4219 F       1  UNL1       -0.2042
     23 C          61.1292   93.1112    2.8923 C.ar    1  UNL1        0.0327
     24 C          62.1225   93.6563    1.9093 C.ar    1  UNL1        0.0389
     25 C          61.7320   93.8415    0.4730 C.ar    1  UNL1        0.1361
     26 O          63.1191   94.3560    0.2253 O.3     1  UNL1       -0.4777
     27 H          65.4159   95.9876   -3.7413 H       1  UNL1        0.1499
     28 H          57.8522   93.1875   -2.4180 H       1  UNL1        0.1484
@<TRIPOS>BOND
     1     2     1    1
     2     2     3    1
     3     3     4    1
     4     4     5   am
     5     5     6    2
     6     5     7    1
     7     7     8   ar
     8     8     9   ar
     9     9    10   ar
    10    10    11   ar
    11    11    12   ar
    12    12    13   ar
    13    13    14   ar
    14    14    15   ar
    15    13    16    1
    16    16    17    1
    17    17    18    1
    18    17    19    1
    19    19    20   ar
    20    20    21   ar
    21    21    22    1
    22    21    23   ar
    23    23    24   ar
    24    24    25   ar
    25    25    26    1
    26    26     2    1
    27    15     7   ar
    28    25    19   ar
    29    15    10   ar
    30     4    27    1
    31    16    28    1
@<TRIPOS>MOLECULE
*****
 28 31 0 0 0
SMALL
GASTEIGER

@<TRIPOS>ATOM
      1 C          63.2279   90.9743   13.3641 C.3     1  UNL1        0.0491
      2 C          63.1157   89.5200   13.0140 C.3     1  UNL1        0.1855
      3 C          63.8363   88.8253   14.1311 C.3     1  UNL1        0.1335
      4 N          64.3382   87.5937   14.8248 N.am    1  UNL1       -0.2975
      5 C          64.5063   86.1072   14.9361 C.2     1  UNL1        0.2505
      6 O          65.2841   85.9280   16.2062 O.2     1  UNL1       -0.2700
      7 C          64.3022   84.7066   14.4395 C.ar    1  UNL1        0.1099
      8 C          64.8878   83.6173   15.2882 C.ar    1  UNL1        0.1281
      9 N          64.5818   82.3035   14.6323 N.ar    1  UNL1       -0.1619
     10 N          63.8070   82.5808   13.3782 N.ar    1  UNL1       -0.2104
     11 C          63.2365   81.6728   12.3293 C.ar    1  UNL1        0.1049
     12 C          62.4933   82.2501   11.1613 C.ar    1  UNL1        0.0548
     13 C          62.3205   83.7354   11.0422 C.ar    1  UNL1        0.1319
     14 N          62.8909   84.6433   12.0910 N.ar    1  UNL1       -0.2118
     15 C          63.6342   84.0661   13.2590 C.ar    1  UNL1        0.1710
     16 N          61.6395   84.7022   10.0215 N.pl3   1  UNL1       -0.3159
     17 C          61.2945   86.1018    9.6070 C.3     1  UNL1        0.0960
     18 C          60.5349   85.9201    8.3263 C.3     1  UNL1        0.0262
     19 C          61.3131   87.5886    9.8055 C.ar    1  UNL1        0.0317
     20 C          60.5352   87.7078    8.5285 C.ar    1  UNL1        0.0300
     21 C          60.1352   89.0601    8.0173 C.ar    1  UNL1        0.1401
     22 F          59.3574   89.1793    6.7403 F       1  UNL1       -0.2042
     23 C          60.5130   90.2932    8.7833 C.ar    1  UNL1        0.0327
     24 C          61.2909   90.1740   10.0603 C.ar    1  UNL1        0.0389
     25 C          61.6909   88.8217   10.5713 C.ar    1  UNL1        0.1361
     26 O          62.3414   89.5188   11.7293 O.3     1  UNL1       -0.4777
     27 H          64.7958   87.9430   15.6234 H       1  UNL1        0.1499
     28 H          61.2586   84.1211    9.3241 H       1  UNL1        0.1484
@<TRIPOS>BOND
     1     2     1    1
     2     2     3    1
     3     3     4    1
     4     4     5   am
     5     5     6    2
     6     5     7    1
     7     7     8   ar
     8     8     9   ar
     9     9    10   ar
    10    10    11   ar
    11    11    12   ar
    12    12    13   ar
    13    13    14   ar
    14    14    15   ar
    15    13    16    1
    16    16    17    1
    17    17    18    1
    18    17    19    1
    19    19    20   ar
    20    20    21   ar
    21    21    22    1
    22    21    23   ar
    23    23    24   ar
    24    24    25   ar
    25    25    26    1
    26    26     2    1
    27    15     7   ar
    28    25    19   ar
    29    15    10   ar
    30     4    27    1
    31    16    28    1
