@<TRIPOS>MOLECULE
*****
 32 35 0 0 0
SMALL
GASTEIGER

@<TRIPOS>ATOM
      1 C          61.9480   89.3625   11.2787 C.2     1  UNL1        0.2480
      2 O          60.5547   89.3360   11.8335 O.2     1  UNL1       -0.2701
      3 N          62.2267   88.7838    9.9232 N.am    1  UNL1       -0.3007
      4 H          63.1412   88.8012    9.5591 H       1  UNL1        0.1497
      5 C          65.2921   91.1781   13.6810 C.ar    1  UNL1        0.0196
      6 C          64.6396   89.9092   14.1435 C.ar    1  UNL1        0.0018
      7 C          63.5249   89.3040   13.3428 C.ar    1  UNL1        0.0068
      8 C          63.0628   89.9677   12.0795 C.ar    1  UNL1        0.0808
      9 C          63.7153   91.2366   11.6169 C.ar    1  UNL1        0.1445
     10 F          63.2532   91.9004   10.3536 F       1  UNL1       -0.2040
     11 C          64.8300   91.8418   12.4177 C.ar    1  UNL1        0.0313
     12 C          65.0370   92.4284   16.6846 C.3     1  UNL1        0.1537
     13 N          66.2896   92.3580   15.8623 N.ar    1  UNL1       -0.2488
     14 N          67.6448   92.8499   16.2762 N.ar    1  UNL1       -0.1676
     15 C          68.5997   92.5793   15.1515 C.ar    1  UNL1        0.1217
     16 C          67.8346   91.9201   14.0424 C.ar    1  UNL1        0.0412
     17 C          66.4069   91.7833   14.4817 C.ar    1  UNL1        0.0796
     18 C          61.1120   88.1785    9.1225 C.3     1  UNL1        0.0916
     19 C          60.1746   89.0625    8.3544 C.3     1  UNL1        0.0887
     20 N          59.0599   88.4573    7.5536 N.3     1  UNL1       -0.2961
     21 C          58.8826   86.9682    7.5210 C.3     1  UNL1        0.0690
     22 C          59.8200   86.0843    8.2892 C.3     1  UNL1        0.0231
     23 C          60.9347   86.6894    9.0899 C.3     1  UNL1        0.0431
     24 H          59.1931   88.7592    6.5885 H       1  UNL1        0.1233
     25 C          61.8720   85.8055    9.8580 C.ar    1  UNL1       -0.0184
     26 C          62.8962   84.9863    9.1301 C.ar    1  UNL1       -0.0018
     27 C          63.8336   84.1024    9.8982 C.ar    1  UNL1        0.0316
     28 C          63.7467   84.0376   11.3943 C.ar    1  UNL1        0.1674
     29 F          64.6841   83.1537   12.1624 F       1  UNL1       -0.2018
     30 C          62.7226   84.8568   12.1222 C.ar    1  UNL1        0.1671
     31 F          62.6357   84.7921   13.6183 F       1  UNL1       -0.2018
     32 C          61.7852   85.7408   11.3541 C.ar    1  UNL1        0.0277
@<TRIPOS>BOND
     1    12    13    1
     2    13    14   ar
     3    14    15   ar
     4    15    16   ar
     5    16    17   ar
     6    17     5    1
     7     5     6   ar
     8     6     7   ar
     9     7     8   ar
    10     8     1    1
    11     1     2    2
    12     1     3   am
    13    18     3    1
    14    18    19    1
    15    19    20    1
    16    20    21    1
    17    21    22    1
    18    22    23    1
    19    23    25    1
    20    25    26   ar
    21    26    27   ar
    22    27    28   ar
    23    28    29    1
    24    28    30   ar
    25    30    31    1
    26    30    32   ar
    27     8     9   ar
    28     9    10    1
    29     9    11   ar
    30    17    13   ar
    31    11     5   ar
    32    23    18    1
    33    32    25   ar
    34     3     4    1
    35    20    24    1
@<TRIPOS>MOLECULE
*****
 32 35 0 0 0
SMALL
GASTEIGER

@<TRIPOS>ATOM
      1 C          62.0245   89.3690   11.3486 C.2     1  UNL1        0.2480
      2 O          60.6337   89.3282   11.9089 O.2     1  UNL1       -0.2701
      3 N          62.3029   88.7974    9.9900 N.am    1  UNL1       -0.3007
      4 H          63.2157   88.8242    9.6223 H       1  UNL1        0.1497
      5 C          65.3620   91.2062   13.7435 C.ar    1  UNL1        0.0196
      6 C          64.6984   89.9495   14.2232 C.ar    1  UNL1        0.0018
      7 C          63.5860   89.3371   13.4249 C.ar    1  UNL1        0.0068
      8 C          63.1371   89.9815   12.1469 C.ar    1  UNL1        0.0808
      9 C          63.8007   91.2382   11.6672 C.ar    1  UNL1        0.1445
     10 F          63.3518   91.8826   10.3892 F       1  UNL1       -0.2040
     11 C          64.9131   91.8506   12.4656 C.ar    1  UNL1        0.0313
     12 C          65.0986   92.4841   16.7348 C.3     1  UNL1        0.1537
     13 N          66.3534   92.4060   15.9167 N.ar    1  UNL1       -0.2488
     14 N          67.7075   92.9016   16.3300 N.ar    1  UNL1       -0.1676
     15 C          68.6656   92.6205   15.2105 C.ar    1  UNL1        0.1217
     16 C          67.9035   91.9512   14.1054 C.ar    1  UNL1        0.0412
     17 C          66.4746   91.8187   14.5419 C.ar    1  UNL1        0.0796
     18 C          61.1903   88.1850    9.1917 C.3     1  UNL1        0.0916
     19 C          60.2994   89.0556    8.3562 C.3     1  UNL1        0.0887
     20 N          59.1869   88.4433    7.5579 N.3     1  UNL1       -0.2961
     21 C          58.9653   86.9602    7.5951 C.3     1  UNL1        0.0690
     22 C          59.8563   86.0895    8.4306 C.3     1  UNL1        0.0231
     23 C          60.9688   86.7019    9.2289 C.3     1  UNL1        0.0431
     24 H          59.3529   88.6918    6.5826 H       1  UNL1        0.1233
     25 C          61.8598   85.8312   10.0644 C.ar    1  UNL1       -0.0184
     26 C          61.7733   85.8867   11.5609 C.ar    1  UNL1       -0.0018
     27 C          62.6642   85.0160   12.3964 C.ar    1  UNL1        0.0316
     28 C          63.6417   84.0899   11.7355 C.ar    1  UNL1        0.1674
     29 F          64.5326   83.2192   12.5710 F       1  UNL1       -0.2018
     30 C          63.7282   84.0344   10.2390 C.ar    1  UNL1        0.1671
     31 F          64.7056   83.1083    9.5780 F       1  UNL1       -0.2018
     32 C          62.8372   84.9051    9.4035 C.ar    1  UNL1        0.0277
@<TRIPOS>BOND
     1    12    13    1
     2    13    14   ar
     3    14    15   ar
     4    15    16   ar
     5    16    17   ar
     6    17     5    1
     7     5     6   ar
     8     6     7   ar
     9     7     8   ar
    10     8     1    1
    11     1     2    2
    12     1     3   am
    13    18     3    1
    14    18    19    1
    15    19    20    1
    16    20    21    1
    17    21    22    1
    18    22    23    1
    19    23    25    1
    20    25    26   ar
    21    26    27   ar
    22    27    28   ar
    23    28    29    1
    24    28    30   ar
    25    30    31    1
    26    30    32   ar
    27     8     9   ar
    28     9    10    1
    29     9    11   ar
    30    17    13   ar
    31    11     5   ar
    32    23    18    1
    33    32    25   ar
    34     3     4    1
    35    20    24    1
@<TRIPOS>MOLECULE
*****
 32 35 0 0 0
SMALL
GASTEIGER

@<TRIPOS>ATOM
      1 C          63.8784   88.9568   14.1952 C.2     1  UNL1        0.2480
      2 O          62.9868   89.1761   15.3813 O.2     1  UNL1       -0.2701
      3 N          64.1853   87.5624   13.7353 N.am    1  UNL1       -0.3007
      4 H          64.7705   87.4185   12.9569 H       1  UNL1        0.1497
      5 C          65.6327   92.4819   12.0168 C.ar    1  UNL1        0.0196
      6 C          66.2052   92.0548   13.3358 C.ar    1  UNL1        0.0018
      7 C          65.6204   90.8798   14.0619 C.ar    1  UNL1        0.0068
      8 C          64.4632   90.1319   13.4690 C.ar    1  UNL1        0.0808
      9 C          63.8908   90.5590   12.1500 C.ar    1  UNL1        0.1445
     10 F          62.7335   89.8111   11.5571 F       1  UNL1       -0.2040
     11 C          64.4755   91.7340   11.4239 C.ar    1  UNL1        0.0313
     12 C          67.9474   92.3591    9.7196 C.3     1  UNL1        0.1537
     13 N          67.2814   93.6005   10.2347 N.ar    1  UNL1       -0.2488
     14 N          67.5624   95.0034    9.7843 N.ar    1  UNL1       -0.1676
     15 C          66.6722   95.9270   10.5619 C.ar    1  UNL1        0.1217
     16 C          65.8410   95.0948   11.4928 C.ar    1  UNL1        0.0412
     17 C          66.2175   93.6570   11.2906 C.ar    1  UNL1        0.0796
     18 C          63.6005   86.3873   14.4615 C.3     1  UNL1        0.0916
     19 C          63.6499   86.3313   15.9597 C.3     1  UNL1        0.0887
     20 N          63.0652   85.1563   16.6859 N.3     1  UNL1       -0.2961
     21 C          62.4311   84.0373   15.9140 C.3     1  UNL1        0.0690
     22 C          62.3817   84.0934   14.4158 C.3     1  UNL1        0.0231
     23 C          62.9664   85.2684   13.6896 C.3     1  UNL1        0.0431
     24 H          62.3496   85.5240   17.3129 H       1  UNL1        0.1233
     25 C          62.9171   85.3245   12.1915 C.ar    1  UNL1       -0.0184
     26 C          63.4700   84.1908   11.3799 C.ar    1  UNL1       -0.0018
     27 C          63.4207   84.2468    9.8817 C.ar    1  UNL1        0.0316
     28 C          62.8183   85.4367    9.1952 C.ar    1  UNL1        0.1674
     29 F          62.7690   85.4928    7.6971 F       1  UNL1       -0.2018
     30 C          62.2654   86.5705   10.0068 C.ar    1  UNL1        0.1671
     31 F          61.6630   87.7604    9.3203 F       1  UNL1       -0.2018
     32 C          62.3147   86.5144   11.5049 C.ar    1  UNL1        0.0277
@<TRIPOS>BOND
     1    12    13    1
     2    13    14   ar
     3    14    15   ar
     4    15    16   ar
     5    16    17   ar
     6    17     5    1
     7     5     6   ar
     8     6     7   ar
     9     7     8   ar
    10     8     1    1
    11     1     2    2
    12     1     3   am
    13    18     3    1
    14    18    19    1
    15    19    20    1
    16    20    21    1
    17    21    22    1
    18    22    23    1
    19    23    25    1
    20    25    26   ar
    21    26    27   ar
    22    27    28   ar
    23    28    29    1
    24    28    30   ar
    25    30    31    1
    26    30    32   ar
    27     8     9   ar
    28     9    10    1
    29     9    11   ar
    30    17    13   ar
    31    11     5   ar
    32    23    18    1
    33    32    25   ar
    34     3     4    1
    35    20    24    1
@<TRIPOS>MOLECULE
*****
 32 35 0 0 0
SMALL
GASTEIGER

@<TRIPOS>ATOM
      1 C          63.7478   89.2644   13.9079 C.2     1  UNL1        0.2480
      2 O          62.7242   89.5586   14.9642 O.2     1  UNL1       -0.2701
      3 N          64.1934   87.8525   13.6679 N.am    1  UNL1       -0.3007
      4 H          64.8652   87.6594   12.9746 H       1  UNL1        0.1497
      5 C          65.4815   92.6181   11.4590 C.ar    1  UNL1        0.0196
      6 C          64.3190   91.8291   10.9336 C.ar    1  UNL1        0.0018
      7 C          63.7411   90.7113   11.7499 C.ar    1  UNL1        0.0068
      8 C          64.3257   90.3824   13.0916 C.ar    1  UNL1        0.0808
      9 C          65.4882   91.1714   13.6170 C.ar    1  UNL1        0.1445
     10 F          66.0728   90.8425   14.9587 F       1  UNL1       -0.2040
     11 C          66.0661   92.2893   12.8007 C.ar    1  UNL1        0.0313
     12 C          68.1216   92.4331    9.5497 C.3     1  UNL1        0.1537
     13 N          67.2729   93.6510    9.7652 N.ar    1  UNL1       -0.2488
     14 N          67.4888   94.9977    9.1408 N.ar    1  UNL1       -0.1676
     15 C          66.4086   95.9151    9.6325 C.ar    1  UNL1        0.1217
     16 C          65.5253   95.1354   10.5608 C.ar    1  UNL1        0.0412
     17 C          66.0594   93.7361   10.6427 C.ar    1  UNL1        0.0796
     18 C          63.6155   86.7345   14.4842 C.3     1  UNL1        0.0916
     19 C          63.6657   86.7959   15.9821 C.3     1  UNL1        0.0887
     20 N          63.0878   85.6781   16.7983 N.3     1  UNL1       -0.2961
     21 C          62.4597   84.4988   16.1167 C.3     1  UNL1        0.0690
     22 C          62.4094   84.4374   14.6188 C.3     1  UNL1        0.0231
     23 C          62.9873   85.5552   13.8025 C.3     1  UNL1        0.0431
     24 H          62.3704   86.0897   17.3952 H       1  UNL1        0.1233
     25 C          62.9371   85.4938   12.3046 C.ar    1  UNL1       -0.0184
     26 C          62.2905   86.6035   11.5298 C.ar    1  UNL1       -0.0018
     27 C          62.2402   86.5421   10.0319 C.ar    1  UNL1        0.0316
     28 C          62.8366   85.3709    9.3088 C.ar    1  UNL1        0.1674
     29 F          62.7863   85.3095    7.8109 F       1  UNL1       -0.2018
     30 C          63.4831   84.2612   10.0837 C.ar    1  UNL1        0.1671
     31 F          64.0795   83.0900    9.3607 F       1  UNL1       -0.2018
     32 C          63.5334   84.3227   11.5816 C.ar    1  UNL1        0.0277
@<TRIPOS>BOND
     1    12    13    1
     2    13    14   ar
     3    14    15   ar
     4    15    16   ar
     5    16    17   ar
     6    17     5    1
     7     5     6   ar
     8     6     7   ar
     9     7     8   ar
    10     8     1    1
    11     1     2    2
    12     1     3   am
    13    18     3    1
    14    18    19    1
    15    19    20    1
    16    20    21    1
    17    21    22    1
    18    22    23    1
    19    23    25    1
    20    25    26   ar
    21    26    27   ar
    22    27    28   ar
    23    28    29    1
    24    28    30   ar
    25    30    31    1
    26    30    32   ar
    27     8     9   ar
    28     9    10    1
    29     9    11   ar
    30    17    13   ar
    31    11     5   ar
    32    23    18    1
    33    32    25   ar
    34     3     4    1
    35    20    24    1
@<TRIPOS>MOLECULE
*****
 32 35 0 0 0
SMALL
GASTEIGER

@<TRIPOS>ATOM
      1 C          61.7570   89.5890   11.1614 C.2     1  UNL1        0.2480
      2 O          60.3301   89.7310   11.6017 O.2     1  UNL1       -0.2701
      3 N          62.0815   88.8535    9.8950 N.am    1  UNL1       -0.3007
      4 H          63.0180   88.7603    9.6060 H       1  UNL1        0.1497
      5 C          65.0642   91.3693   13.6398 C.ar    1  UNL1        0.0196
      6 C          64.3663   92.2057   12.6086 C.ar    1  UNL1        0.0018
      7 C          63.2639   91.6122   11.7825 C.ar    1  UNL1        0.0068
      8 C          62.8595   90.1824   11.9876 C.ar    1  UNL1        0.0808
      9 C          63.5574   89.3461   13.0188 C.ar    1  UNL1        0.1445
     10 F          63.1529   87.9162   13.2238 F       1  UNL1       -0.2040
     11 C          64.6598   89.9395   13.8449 C.ar    1  UNL1        0.0313
     12 C          68.2520   91.2559   12.9505 C.3     1  UNL1        0.1537
     13 N          67.6319   91.9106   14.1491 N.ar    1  UNL1       -0.2488
     14 N          68.3682   92.6282   15.2414 N.ar    1  UNL1       -0.1676
     15 C          67.3580   93.1238   16.2333 C.ar    1  UNL1        0.1217
     16 C          65.9974   92.7126   15.7541 C.ar    1  UNL1        0.0412
     17 C          66.1667   91.9628   14.4660 C.ar    1  UNL1        0.0796
     18 C          60.9790   88.2601    9.0688 C.3     1  UNL1        0.0916
     19 C          60.0933   89.1509    8.2492 C.3     1  UNL1        0.0887
     20 N          58.9909   88.5575    7.4230 N.3     1  UNL1       -0.2961
     21 C          58.7742   87.0733    7.4165 C.3     1  UNL1        0.0690
     22 C          59.6599   86.1825    8.2362 C.3     1  UNL1        0.0231
     23 C          60.7623   86.7758    9.0624 C.3     1  UNL1        0.0431
     24 H          59.1656   88.8338    6.4568 H       1  UNL1        0.1233
     25 C          61.6481   85.8850    9.8821 C.ar    1  UNL1       -0.0184
     26 C          61.5597   85.9119   11.3792 C.ar    1  UNL1       -0.0018
     27 C          62.4455   85.0210   12.1989 C.ar    1  UNL1        0.0316
     28 C          63.4195   84.1033   11.5214 C.ar    1  UNL1        0.1674
     29 F          64.3052   83.2125   12.3411 F       1  UNL1       -0.2018
     30 C          63.5078   84.0764   10.0243 C.ar    1  UNL1        0.1671
     31 F          64.4819   83.1587    9.3468 F       1  UNL1       -0.2018
     32 C          62.6221   84.9673    9.2046 C.ar    1  UNL1        0.0277
@<TRIPOS>BOND
     1    12    13    1
     2    13    14   ar
     3    14    15   ar
     4    15    16   ar
     5    16    17   ar
     6    17     5    1
     7     5     6   ar
     8     6     7   ar
     9     7     8   ar
    10     8     1    1
    11     1     2    2
    12     1     3   am
    13    18     3    1
    14    18    19    1
    15    19    20    1
    16    20    21    1
    17    21    22    1
    18    22    23    1
    19    23    25    1
    20    25    26   ar
    21    26    27   ar
    22    27    28   ar
    23    28    29    1
    24    28    30   ar
    25    30    31    1
    26    30    32   ar
    27     8     9   ar
    28     9    10    1
    29     9    11   ar
    30    17    13   ar
    31    11     5   ar
    32    23    18    1
    33    32    25   ar
    34     3     4    1
    35    20    24    1
