@<TRIPOS>MOLECULE
*****
 42 46 0 0 0
SMALL
GASTEIGER

@<TRIPOS>ATOM
      1 C          59.5040   92.3939    4.1308 C.3     1  UNL1        0.0758
      2 C          58.0939   92.0500    4.5092 C.3     1  UNL1        0.0370
      3 C          57.8218   90.8728    5.3982 C.3     1  UNL1        0.0741
      4 N          58.9599   90.0397    5.9087 N.3     1  UNL1       -0.2688
      5 C          60.3700   90.3836    5.5303 C.3     1  UNL1        0.0741
      6 C          60.6420   91.5607    4.6413 C.3     1  UNL1        0.0370
      7 O          59.6665   92.0229    1.1582 O.2     1  UNL1       -0.2528
      8 C          59.8574   93.3855    1.7555 C.2     1  UNL1        0.3009
      9 N          59.7761   93.5711    3.2417 N.am    1  UNL1       -0.2905
     10 N          60.1295   94.5627    0.8665 N.am    1  UNL1       -0.2864
     11 H          59.9014   94.4654    3.6337 H       1  UNL1        0.1509
     12 H          60.2548   95.4571    1.2585 H       1  UNL1        0.1512
     13 C          60.2108   94.3772   -0.6198 C.3     1  UNL1        0.1015
     14 C          58.9806   94.0178   -1.3991 C.ar    1  UNL1       -0.0041
     15 C          57.6280   94.4277   -0.8966 C.ar    1  UNL1       -0.0027
     16 C          56.3978   94.0683   -1.6760 C.ar    1  UNL1       -0.0003
     17 C          56.5201   93.2991   -2.9579 C.ar    1  UNL1       -0.0000
     18 C          57.8727   92.8892   -3.4604 C.ar    1  UNL1       -0.0003
     19 C          59.1029   93.2486   -2.6810 C.ar    1  UNL1       -0.0027
     20 C          61.5223   94.5510   -1.3266 C.3     1  UNL1        0.0715
     21 C          62.8081   94.3211   -0.5891 C.ar    1  UNL1        0.0801
     22 C          64.0185   95.1441   -0.9173 C.ar    1  UNL1        0.1136
     23 N          65.3042   94.9142   -0.1798 N.ar    1  UNL1       -0.2395
     24 C          65.3796   93.8612    0.8858 C.ar    1  UNL1        0.1195
     25 C          64.1693   93.0382    1.2140 C.ar    1  UNL1        0.1191
     26 N          62.8835   93.2682    0.4765 N.ar    1  UNL1       -0.2449
     27 C          58.6877   88.8625    6.7978 C.3     1  UNL1        0.1007
     28 C          59.6627   88.4968    7.8774 C.ar    1  UNL1        0.0129
     29 C          60.2489   89.4348    8.8906 C.ar    1  UNL1        0.0176
     30 C          61.1711   88.6467    9.7729 C.ar    1  UNL1        0.0799
     31 N          61.1548   87.2216    9.3050 N.ar    1  UNL1       -0.3038
     32 C          60.2225   87.1290    8.1335 C.ar    1  UNL1        0.0772
     33 C          61.9340   86.0881    9.9035 C.ar    1  UNL1        0.0640
     34 C          62.8369   85.2596    9.0385 C.ar    1  UNL1        0.0175
     35 C          63.6160   84.1261    9.6370 C.ar    1  UNL1        0.0053
     36 C          63.4923   83.8212   11.1004 C.ar    1  UNL1        0.0715
     37 C          62.5893   84.6497   11.9654 C.ar    1  UNL1        0.0053
     38 C          61.8102   85.7832   11.3669 C.ar    1  UNL1        0.0175
     39 C          64.2714   82.6878   11.6989 C.3     1  UNL1        0.4186
     40 F          65.0506   81.5544   12.2974 F       1  UNL1       -0.1659
     41 F          63.9489   81.8366   10.5066 F       1  UNL1       -0.1659
     42 F          64.5940   83.5390   12.8912 F       1  UNL1       -0.1659
@<TRIPOS>BOND
     1     7     8    2
     2     8     9   am
     3     9     1    1
     4     1     2    1
     5     2     3    1
     6     3     4    1
     7     4    27    1
     8    27    28    1
     9    28    29   ar
    10    29    30   ar
    11    30    31   ar
    12    31    33    1
    13    33    34   ar
    14    34    35   ar
    15    35    36   ar
    16    36    39    1
    17    39    40    1
    18    39    41    1
    19    39    42    1
    20    36    37   ar
    21    37    38   ar
    22    31    32   ar
    23     4     5    1
    24     5     6    1
    25     8    10   am
    26    10    13    1
    27    13    20    1
    28    20    21    1
    29    21    22   ar
    30    22    23   ar
    31    23    24   ar
    32    24    25   ar
    33    25    26   ar
    34    13    14    1
    35    14    15   ar
    36    15    16   ar
    37    16    17   ar
    38    17    18   ar
    39    18    19   ar
    40     6     1    1
    41    26    21   ar
    42    19    14   ar
    43    32    28   ar
    44    38    33   ar
    45     9    11    1
    46    10    12    1
@<TRIPOS>MOLECULE
*****
 42 46 0 0 0
SMALL
GASTEIGER

@<TRIPOS>ATOM
      1 C          61.5990   88.0331   10.0379 C.3     1  UNL1        0.0758
      2 C          61.0393   89.4220    9.9508 C.3     1  UNL1        0.0370
      3 C          60.0533   89.7671    8.8744 C.3     1  UNL1        0.0741
      4 N          59.6269   88.7233    7.8852 N.3     1  UNL1       -0.2688
      5 C          60.1866   87.3343    7.9723 C.3     1  UNL1        0.0741
      6 C          61.1726   86.9893    9.0486 C.3     1  UNL1        0.0370
      7 O          61.6142   85.2810   11.2319 O.2     1  UNL1       -0.2528
      8 C          62.5927   86.3119   11.7113 C.2     1  UNL1        0.3009
      9 N          62.5851   87.6879   11.1143 N.am    1  UNL1       -0.2905
     10 N          63.5788   85.9667   12.7877 N.am    1  UNL1       -0.2864
     11 H          63.2273   88.3646   11.4290 H       1  UNL1        0.1509
     12 H          64.2210   86.6434   13.1024 H       1  UNL1        0.1512
     13 C          63.5864   84.5907   13.3847 C.3     1  UNL1        0.1015
     14 C          63.4796   83.3870   12.4960 C.ar    1  UNL1       -0.0041
     15 C          62.6343   82.2200   12.9124 C.ar    1  UNL1       -0.0027
     16 C          62.5276   81.0163   12.0237 C.ar    1  UNL1       -0.0003
     17 C          63.2662   80.9796   10.7187 C.ar    1  UNL1       -0.0000
     18 C          64.1115   82.1467   10.3023 C.ar    1  UNL1       -0.0003
     19 C          64.2182   83.3504   11.1910 C.ar    1  UNL1       -0.0027
     20 C          63.7007   84.4184   14.8703 C.3     1  UNL1        0.0715
     21 C          63.3545   85.5549   15.7861 C.ar    1  UNL1        0.0801
     22 C          62.4917   85.3128   16.9890 C.ar    1  UNL1        0.1136
     23 N          62.1455   86.4492   17.9047 N.ar    1  UNL1       -0.2395
     24 C          62.6622   87.8278   17.6175 C.ar    1  UNL1        0.1195
     25 C          63.5250   88.0700   16.4147 C.ar    1  UNL1        0.1191
     26 N          63.8712   86.9335   15.4989 N.ar    1  UNL1       -0.2449
     27 C          58.6409   89.0684    6.8087 C.3     1  UNL1        0.1007
     28 C          58.9432   90.1739    5.8411 C.ar    1  UNL1        0.0129
     29 C          57.9928   91.2503    5.4073 C.ar    1  UNL1        0.0176
     30 C          58.7112   92.1388    4.4355 C.ar    1  UNL1        0.0799
     31 N          60.1056   91.6116    4.2687 N.ar    1  UNL1       -0.3038
     32 C          60.2489   90.3972    5.1374 C.ar    1  UNL1        0.0772
     33 C          61.1697   92.1961    3.3878 C.ar    1  UNL1        0.0640
     34 C          62.5375   91.5812    3.3549 C.ar    1  UNL1        0.0175
     35 C          63.6016   92.1657    2.4740 C.ar    1  UNL1        0.0053
     36 C          63.2980   93.3651    1.6261 C.ar    1  UNL1        0.0715
     37 C          61.9303   93.9801    1.6589 C.ar    1  UNL1        0.0053
     38 C          60.8661   93.3956    2.5398 C.ar    1  UNL1        0.0175
     39 C          64.3622   93.9496    0.7452 C.3     1  UNL1        0.4186
     40 F          65.4264   94.5341   -0.1356 F       1  UNL1       -0.1659
     41 F          63.6105   95.2469    0.6980 F       1  UNL1       -0.1659
     42 F          65.1138   92.6523    0.7924 F       1  UNL1       -0.1659
@<TRIPOS>BOND
     1     7     8    2
     2     8     9   am
     3     9     1    1
     4     1     2    1
     5     2     3    1
     6     3     4    1
     7     4    27    1
     8    27    28    1
     9    28    29   ar
    10    29    30   ar
    11    30    31   ar
    12    31    33    1
    13    33    34   ar
    14    34    35   ar
    15    35    36   ar
    16    36    39    1
    17    39    40    1
    18    39    41    1
    19    39    42    1
    20    36    37   ar
    21    37    38   ar
    22    31    32   ar
    23     4     5    1
    24     5     6    1
    25     8    10   am
    26    10    13    1
    27    13    20    1
    28    20    21    1
    29    21    22   ar
    30    22    23   ar
    31    23    24   ar
    32    24    25   ar
    33    25    26   ar
    34    13    14    1
    35    14    15   ar
    36    15    16   ar
    37    16    17   ar
    38    17    18   ar
    39    18    19   ar
    40     6     1    1
    41    26    21   ar
    42    19    14   ar
    43    32    28   ar
    44    38    33   ar
    45     9    11    1
    46    10    12    1
@<TRIPOS>MOLECULE
*****
 42 46 0 0 0
SMALL
GASTEIGER

@<TRIPOS>ATOM
      1 C          61.7642   88.3184   10.0674 C.3     1  UNL1        0.0758
      2 C          61.2494   89.7123    9.8624 C.3     1  UNL1        0.0370
      3 C          60.2314   89.9864    8.7954 C.3     1  UNL1        0.0741
      4 N          59.7283   88.8667    7.9334 N.3     1  UNL1       -0.2688
      5 C          60.2431   87.4728    8.1383 C.3     1  UNL1        0.0741
      6 C          61.2611   87.1987    9.2053 C.3     1  UNL1        0.0370
      7 O          62.1434   90.2684   12.3155 O.2     1  UNL1       -0.2528
      8 C          62.9718   89.0192   12.2584 C.2     1  UNL1        0.3009
      9 N          62.7822   88.0442   11.1344 N.am    1  UNL1       -0.2905
     10 N          63.9898   88.7450   13.3255 N.am    1  UNL1       -0.2864
     11 H          63.3260   87.2243   11.0970 H       1  UNL1        0.1509
     12 H          64.5335   87.9251   13.2880 H       1  UNL1        0.1512
     13 C          64.1794   89.7200   14.4495 C.3     1  UNL1        0.1015
     14 C          64.9516   90.9857   14.2222 C.ar    1  UNL1       -0.0041
     15 C          65.0025   91.5978   12.8538 C.ar    1  UNL1       -0.0027
     16 C          65.7748   92.8635   12.6266 C.ar    1  UNL1       -0.0003
     17 C          66.4961   93.5171   13.7678 C.ar    1  UNL1       -0.0000
     18 C          66.4452   92.9050   15.1362 C.ar    1  UNL1       -0.0003
     19 C          65.6730   91.6393   15.3635 C.ar    1  UNL1       -0.0027
     20 C          63.5967   89.4292   15.8007 C.3     1  UNL1        0.0715
     21 C          63.3350   88.0116   16.2154 C.ar    1  UNL1        0.0801
     22 C          62.5626   87.7275   17.4695 C.ar    1  UNL1        0.1136
     23 N          62.3009   86.3099   17.8843 N.ar    1  UNL1       -0.2395
     24 C          62.8116   85.1765   17.0449 C.ar    1  UNL1        0.1195
     25 C          63.5840   85.4607   15.7908 C.ar    1  UNL1        0.1191
     26 N          63.8457   86.8782   15.3761 N.ar    1  UNL1       -0.2449
     27 C          58.7102   89.1409    6.8663 C.3     1  UNL1        0.1007
     28 C          58.9656   90.2067    5.8423 C.ar    1  UNL1        0.0129
     29 C          57.9608   91.1952    5.3292 C.ar    1  UNL1        0.0176
     30 C          58.6447   92.0707    4.3213 C.ar    1  UNL1        0.0799
     31 N          60.0722   91.6233    4.2115 N.ar    1  UNL1       -0.3038
     32 C          60.2705   90.4713    5.1515 C.ar    1  UNL1        0.0772
     33 C          61.1178   92.2226    3.3185 C.ar    1  UNL1        0.0640
     34 C          60.7893   93.4209    2.4782 C.ar    1  UNL1        0.0175
     35 C          61.8349   94.0202    1.5852 C.ar    1  UNL1        0.0053
     36 C          63.2090   93.4213    1.5324 C.ar    1  UNL1        0.0715
     37 C          63.5376   92.2230    2.3727 C.ar    1  UNL1        0.0053
     38 C          62.4920   91.6236    3.2657 C.ar    1  UNL1        0.0175
     39 C          64.2546   94.0206    0.6394 C.3     1  UNL1        0.4186
     40 F          65.3002   94.6200   -0.2536 F       1  UNL1       -0.1659
     41 F          65.0635   92.7616    0.7416 F       1  UNL1       -0.1659
     42 F          63.4457   95.2797    0.5373 F       1  UNL1       -0.1659
@<TRIPOS>BOND
     1     7     8    2
     2     8     9   am
     3     9     1    1
     4     1     2    1
     5     2     3    1
     6     3     4    1
     7     4    27    1
     8    27    28    1
     9    28    29   ar
    10    29    30   ar
    11    30    31   ar
    12    31    33    1
    13    33    34   ar
    14    34    35   ar
    15    35    36   ar
    16    36    39    1
    17    39    40    1
    18    39    41    1
    19    39    42    1
    20    36    37   ar
    21    37    38   ar
    22    31    32   ar
    23     4     5    1
    24     5     6    1
    25     8    10   am
    26    10    13    1
    27    13    20    1
    28    20    21    1
    29    21    22   ar
    30    22    23   ar
    31    23    24   ar
    32    24    25   ar
    33    25    26   ar
    34    13    14    1
    35    14    15   ar
    36    15    16   ar
    37    16    17   ar
    38    17    18   ar
    39    18    19   ar
    40     6     1    1
    41    26    21   ar
    42    19    14   ar
    43    32    28   ar
    44    38    33   ar
    45     9    11    1
    46    10    12    1
@<TRIPOS>MOLECULE
*****
 42 46 0 0 0
SMALL
GASTEIGER

@<TRIPOS>ATOM
      1 C          59.5786   92.5121    4.0606 C.3     1  UNL1        0.0758
      2 C          58.1723   92.2162    4.4903 C.3     1  UNL1        0.0370
      3 C          57.8857   91.0175    5.3451 C.3     1  UNL1        0.0741
      4 N          59.0056   90.1145    5.7703 N.3     1  UNL1       -0.2688
      5 C          60.4119   90.4104    5.3406 C.3     1  UNL1        0.0741
      6 C          60.6984   91.6091    4.4857 C.3     1  UNL1        0.0370
      7 O          59.6157   92.2492    1.0723 O.2     1  UNL1       -0.2528
      8 C          59.8837   93.5794    1.7116 C.2     1  UNL1        0.3009
      9 N          59.8652   93.7109    3.2057 N.am    1  UNL1       -0.2905
     10 N          60.1703   94.7782    0.8567 N.am    1  UNL1       -0.2864
     11 H          60.0411   94.5840    3.6252 H       1  UNL1        0.1509
     12 H          60.3462   95.6513    1.2762 H       1  UNL1        0.1512
     13 C          60.1888   94.6468   -0.6374 C.3     1  UNL1        0.1015
     14 C          61.4391   94.2003   -1.3356 C.ar    1  UNL1       -0.0041
     15 C          62.7298   94.1085   -0.5769 C.ar    1  UNL1       -0.0027
     16 C          63.9800   93.6620   -1.2751 C.ar    1  UNL1       -0.0003
     17 C          63.9396   93.3073   -2.7320 C.ar    1  UNL1       -0.0000
     18 C          62.6489   93.3991   -3.4906 C.ar    1  UNL1       -0.0003
     19 C          61.3987   93.8455   -2.7925 C.ar    1  UNL1       -0.0027
     20 C          58.9570   94.9618   -1.4333 C.3     1  UNL1        0.0715
     21 C          58.0318   93.8578   -1.8518 C.ar    1  UNL1        0.0801
     22 C          56.8333   93.5252   -1.0132 C.ar    1  UNL1        0.1136
     23 N          55.9081   92.4213   -1.4317 N.ar    1  UNL1       -0.2395
     24 C          56.1812   91.6499   -2.6887 C.ar    1  UNL1        0.1195
     25 C          57.3796   91.9824   -3.5273 C.ar    1  UNL1        0.1191
     26 N          58.3049   93.0863   -3.1089 N.ar    1  UNL1       -0.2449
     27 C          58.7190   88.9157    6.6252 C.3     1  UNL1        0.1007
     28 C          59.6471   88.5555    7.7472 C.ar    1  UNL1        0.0129
     29 C          60.1587   89.4903    8.8028 C.ar    1  UNL1        0.0176
     30 C          61.0544   88.7098    9.7185 C.ar    1  UNL1        0.0799
     31 N          61.0964   87.2925    9.2288 N.ar    1  UNL1       -0.3038
     32 C          60.2267   87.1972    8.0104 C.ar    1  UNL1        0.0772
     33 C          61.8720   86.1681    9.8486 C.ar    1  UNL1        0.0640
     34 C          62.7777   85.3251    9.0008 C.ar    1  UNL1        0.0175
     35 C          63.5533   84.2007    9.6206 C.ar    1  UNL1        0.0053
     36 C          63.4231   83.9193   11.0882 C.ar    1  UNL1        0.0715
     37 C          62.5174   84.7624   11.9360 C.ar    1  UNL1        0.0053
     38 C          61.7418   85.8868   11.3162 C.ar    1  UNL1        0.0175
     39 C          64.1987   82.7949   11.7079 C.3     1  UNL1        0.4186
     40 F          64.9743   81.6705   12.3278 F       1  UNL1       -0.1659
     41 F          64.5671   82.2961   10.3421 F       1  UNL1       -0.1659
     42 F          63.8304   83.2937   13.0739 F       1  UNL1       -0.1659
@<TRIPOS>BOND
     1     7     8    2
     2     8     9   am
     3     9     1    1
     4     1     2    1
     5     2     3    1
     6     3     4    1
     7     4    27    1
     8    27    28    1
     9    28    29   ar
    10    29    30   ar
    11    30    31   ar
    12    31    33    1
    13    33    34   ar
    14    34    35   ar
    15    35    36   ar
    16    36    39    1
    17    39    40    1
    18    39    41    1
    19    39    42    1
    20    36    37   ar
    21    37    38   ar
    22    31    32   ar
    23     4     5    1
    24     5     6    1
    25     8    10   am
    26    10    13    1
    27    13    20    1
    28    20    21    1
    29    21    22   ar
    30    22    23   ar
    31    23    24   ar
    32    24    25   ar
    33    25    26   ar
    34    13    14    1
    35    14    15   ar
    36    15    16   ar
    37    16    17   ar
    38    17    18   ar
    39    18    19   ar
    40     6     1    1
    41    26    21   ar
    42    19    14   ar
    43    32    28   ar
    44    38    33   ar
    45     9    11    1
    46    10    12    1
@<TRIPOS>MOLECULE
*****
 42 46 0 0 0
SMALL
GASTEIGER

@<TRIPOS>ATOM
      1 C          59.5138   92.3463    4.1875 C.3     1  UNL1        0.0758
      2 C          58.1257   92.0285    4.6586 C.3     1  UNL1        0.0370
      3 C          57.8900   90.8514    5.5579 C.3     1  UNL1        0.0741
      4 N          59.0424   89.9921    5.9861 N.3     1  UNL1       -0.2688
      5 C          60.4306   90.3098    5.5150 C.3     1  UNL1        0.0741
      6 C          60.6663   91.4869    4.6157 C.3     1  UNL1        0.0370
      7 O          59.6856   91.9547    1.2181 O.2     1  UNL1       -0.2528
      8 C          59.8354   93.3276    1.8034 C.2     1  UNL1        0.3009
      9 N          59.7496   93.5234    3.2881 N.am    1  UNL1       -0.2905
     10 N          60.0712   94.5047    0.9040 N.am    1  UNL1       -0.2864
     11 H          59.8479   94.4245    3.6722 H       1  UNL1        0.1509
     12 H          60.1696   95.4058    1.2882 H       1  UNL1        0.1512
     13 C          60.1571   94.3089   -0.5806 C.3     1  UNL1        0.1015
     14 C          58.9303   93.9392   -1.3606 C.ar    1  UNL1       -0.0041
     15 C          57.5760   94.3604   -0.8725 C.ar    1  UNL1       -0.0027
     16 C          56.3492   93.9906   -1.6524 C.ar    1  UNL1       -0.0003
     17 C          56.4768   93.1996   -2.9204 C.ar    1  UNL1       -0.0000
     18 C          57.8311   92.7783   -3.4085 C.ar    1  UNL1       -0.0003
     19 C          59.0579   93.1481   -2.6286 C.ar    1  UNL1       -0.0027
     20 C          61.4697   94.4829   -1.2853 C.3     1  UNL1        0.0715
     21 C          62.7547   94.2950   -0.5346 C.ar    1  UNL1        0.0801
     22 C          63.9466   95.1443   -0.8637 C.ar    1  UNL1        0.1136
     23 N          65.2316   94.9564   -0.1130 N.ar    1  UNL1       -0.2395
     24 C          65.3247   93.9194    0.9667 C.ar    1  UNL1        0.1195
     25 C          64.1328   93.0702    1.2957 C.ar    1  UNL1        0.1191
     26 N          62.8478   93.2580    0.5451 N.ar    1  UNL1       -0.2449
     27 C          58.8067   88.8149    6.8855 C.3     1  UNL1        0.1007
     28 C          59.8113   88.4662    7.9434 C.ar    1  UNL1        0.0129
     29 C          60.2787   87.0848    8.2943 C.ar    1  UNL1        0.0176
     30 C          61.2812   87.2025    9.4038 C.ar    1  UNL1        0.0799
     31 N          61.4334   88.6568    9.7387 N.ar    1  UNL1       -0.3038
     32 C          60.5250   89.4378    8.8360 C.ar    1  UNL1        0.0772
     33 C          62.3357   89.2294   10.7913 C.ar    1  UNL1        0.0640
     34 C          62.8288   90.6408   10.6696 C.ar    1  UNL1        0.0175
     35 C          63.7310   91.2134   11.7222 C.ar    1  UNL1        0.0053
     36 C          64.1402   90.3747   12.8965 C.ar    1  UNL1        0.0715
     37 C          63.6471   88.9633   13.0182 C.ar    1  UNL1        0.0053
     38 C          62.7449   88.3907   11.9656 C.ar    1  UNL1        0.0175
     39 C          65.0425   90.9473   13.9491 C.3     1  UNL1        0.4186
     40 F          65.9447   91.5199   15.0017 F       1  UNL1       -0.1659
     41 F          65.0317   92.2688   13.2394 F       1  UNL1       -0.1659
     42 F          65.0533   89.6258   14.6588 F       1  UNL1       -0.1659
@<TRIPOS>BOND
     1     7     8    2
     2     8     9   am
     3     9     1    1
     4     1     2    1
     5     2     3    1
     6     3     4    1
     7     4    27    1
     8    27    28    1
     9    28    29   ar
    10    29    30   ar
    11    30    31   ar
    12    31    33    1
    13    33    34   ar
    14    34    35   ar
    15    35    36   ar
    16    36    39    1
    17    39    40    1
    18    39    41    1
    19    39    42    1
    20    36    37   ar
    21    37    38   ar
    22    31    32   ar
    23     4     5    1
    24     5     6    1
    25     8    10   am
    26    10    13    1
    27    13    20    1
    28    20    21    1
    29    21    22   ar
    30    22    23   ar
    31    23    24   ar
    32    24    25   ar
    33    25    26   ar
    34    13    14    1
    35    14    15   ar
    36    15    16   ar
    37    16    17   ar
    38    17    18   ar
    39    18    19   ar
    40     6     1    1
    41    26    21   ar
    42    19    14   ar
    43    32    28   ar
    44    38    33   ar
    45     9    11    1
    46    10    12    1
@<TRIPOS>MOLECULE
*****
 42 46 0 0 0
SMALL
GASTEIGER

@<TRIPOS>ATOM
      1 C          59.4979   92.3534    4.0963 C.3     1  UNL1        0.0758
      2 C          58.0842   91.9863    4.4377 C.3     1  UNL1        0.0370
      3 C          57.8102   90.8395    5.3648 C.3     1  UNL1        0.0741
      4 N          58.9500   90.0598    5.9506 N.3     1  UNL1       -0.2688
      5 C          60.3637   90.4270    5.6092 C.3     1  UNL1        0.0741
      6 C          60.6376   91.5738    4.6820 C.3     1  UNL1        0.0370
      7 O          61.6415   92.1172    2.0108 O.2     1  UNL1       -0.2528
      8 C          60.8437   93.3822    2.1263 C.2     1  UNL1        0.3009
      9 N          59.7719   93.5003    3.1690 N.am    1  UNL1       -0.2905
     10 N          61.1178   94.5290    1.1991 N.am    1  UNL1       -0.2864
     11 H          59.2483   94.3306    3.2449 H       1  UNL1        0.1509
     12 H          60.5941   95.3593    1.2749 H       1  UNL1        0.1512
     13 C          62.1896   94.4109    0.1564 C.3     1  UNL1        0.1015
     14 C          63.4433   95.2259    0.2739 C.ar    1  UNL1       -0.0041
     15 C          64.2570   95.5308   -0.9488 C.ar    1  UNL1       -0.0027
     16 C          65.5107   96.3459   -0.8313 C.ar    1  UNL1       -0.0003
     17 C          65.9509   96.8560    0.5088 C.ar    1  UNL1       -0.0000
     18 C          65.1372   96.5511    1.7315 C.ar    1  UNL1       -0.0003
     19 C          63.8834   95.7360    1.6140 C.ar    1  UNL1       -0.0027
     20 C          62.0076   93.4777   -1.0037 C.3     1  UNL1        0.0715
     21 C          60.6645   93.3491   -1.6593 C.ar    1  UNL1        0.0801
     22 C          60.4790   93.7885   -3.0815 C.ar    1  UNL1        0.1136
     23 N          59.1360   93.6599   -3.7371 N.ar    1  UNL1       -0.2395
     24 C          57.9786   93.0919   -2.9706 C.ar    1  UNL1        0.1195
     25 C          58.1641   92.6525   -1.5484 C.ar    1  UNL1        0.1191
     26 N          59.5071   92.7811   -0.8928 N.ar    1  UNL1       -0.2449
     27 C          58.6759   88.9129    6.8779 C.3     1  UNL1        0.1007
     28 C          59.6823   88.5381    7.9250 C.ar    1  UNL1        0.0129
     29 C          60.3286   89.4749    8.9021 C.ar    1  UNL1        0.0176
     30 C          61.2649   88.6765    9.7599 C.ar    1  UNL1        0.0799
     31 N          61.1973   87.2461    9.3129 N.ar    1  UNL1       -0.3038
     32 C          60.2193   87.1607    8.1789 C.ar    1  UNL1        0.0772
     33 C          61.9718   86.1022    9.8974 C.ar    1  UNL1        0.0640
     34 C          62.8356   85.2521    9.0137 C.ar    1  UNL1        0.0175
     35 C          63.6101   84.1082    9.5981 C.ar    1  UNL1        0.0053
     36 C          63.5208   83.8144   11.0663 C.ar    1  UNL1        0.0715
     37 C          62.6570   84.6645   11.9501 C.ar    1  UNL1        0.0053
     38 C          61.8825   85.8084   11.3656 C.ar    1  UNL1        0.0175
     39 C          64.2953   82.6705   11.6507 C.3     1  UNL1        0.4186
     40 F          65.0698   81.5265   12.2351 F       1  UNL1       -0.1659
     41 F          64.4947   83.4518   12.9156 F       1  UNL1       -0.1659
     42 F          64.0959   81.8892   10.3858 F       1  UNL1       -0.1659
@<TRIPOS>BOND
     1     7     8    2
     2     8     9   am
     3     9     1    1
     4     1     2    1
     5     2     3    1
     6     3     4    1
     7     4    27    1
     8    27    28    1
     9    28    29   ar
    10    29    30   ar
    11    30    31   ar
    12    31    33    1
    13    33    34   ar
    14    34    35   ar
    15    35    36   ar
    16    36    39    1
    17    39    40    1
    18    39    41    1
    19    39    42    1
    20    36    37   ar
    21    37    38   ar
    22    31    32   ar
    23     4     5    1
    24     5     6    1
    25     8    10   am
    26    10    13    1
    27    13    20    1
    28    20    21    1
    29    21    22   ar
    30    22    23   ar
    31    23    24   ar
    32    24    25   ar
    33    25    26   ar
    34    13    14    1
    35    14    15   ar
    36    15    16   ar
    37    16    17   ar
    38    17    18   ar
    39    18    19   ar
    40     6     1    1
    41    26    21   ar
    42    19    14   ar
    43    32    28   ar
    44    38    33   ar
    45     9    11    1
    46    10    12    1
@<TRIPOS>MOLECULE
*****
 42 46 0 0 0
SMALL
GASTEIGER

@<TRIPOS>ATOM
      1 C          61.9437   88.4168    9.9447 C.3     1  UNL1        0.0758
      2 C          61.4672   89.8234    9.7344 C.3     1  UNL1        0.0370
      3 C          60.3856   90.1073    8.7347 C.3     1  UNL1        0.0741
      4 N          59.7804   88.9845    7.9453 N.3     1  UNL1       -0.2688
      5 C          60.2569   87.5778    8.1556 C.3     1  UNL1        0.0741
      6 C          61.3386   87.2940    9.1553 C.3     1  UNL1        0.0370
      7 O          61.7079   89.4611   12.7472 O.2     1  UNL1       -0.2528
      8 C          62.9075   88.6550   12.3456 C.2     1  UNL1        0.3009
      9 N          63.0255   88.1329   10.9444 N.am    1  UNL1       -0.2905
     10 N          63.9893   88.3711   13.3454 N.am    1  UNL1       -0.2864
     11 H          63.8128   87.6039   10.6809 H       1  UNL1        0.1509
     12 H          64.7766   87.8421   13.0818 H       1  UNL1        0.1512
     13 C          63.8713   88.8933   14.7466 C.3     1  UNL1        0.1015
     14 C          63.5357   87.9576   15.8699 C.ar    1  UNL1       -0.0041
     15 C          63.0242   88.5009   17.1711 C.ar    1  UNL1       -0.0027
     16 C          62.6886   87.5652   18.2944 C.ar    1  UNL1       -0.0003
     17 C          62.8643   86.0862   18.1165 C.ar    1  UNL1       -0.0000
     18 C          63.3757   85.5430   16.8153 C.ar    1  UNL1       -0.0003
     19 C          63.7114   86.4786   15.6919 C.ar    1  UNL1       -0.0027
     20 C          64.0891   90.3511   15.0245 C.3     1  UNL1        0.0715
     21 C          64.9771   91.1612   14.1271 C.ar    1  UNL1        0.0801
     22 C          66.4287   91.3324   14.4643 C.ar    1  UNL1        0.1136
     23 N          67.3167   92.1424   13.5670 N.ar    1  UNL1       -0.2395
     24 C          66.7531   92.7814   12.3324 C.ar    1  UNL1        0.1195
     25 C          65.3015   92.6103   11.9952 C.ar    1  UNL1        0.1191
     26 N          64.4135   91.8002   12.8925 N.ar    1  UNL1       -0.2449
     27 C          58.6987   89.2684    6.9456 C.3     1  UNL1        0.1007
     28 C          58.9192   90.2931    5.8727 C.ar    1  UNL1        0.0129
     29 C          57.8783   91.2102    5.3021 C.ar    1  UNL1        0.0176
     30 C          58.5351   92.0646    4.2587 C.ar    1  UNL1        0.0799
     31 N          59.9820   91.6757    4.1845 N.ar    1  UNL1       -0.3038
     32 C          60.2193   90.5808    5.1820 C.ar    1  UNL1        0.0772
     33 C          61.0107   92.2761    3.2729 C.ar    1  UNL1        0.0640
     34 C          62.4016   91.7156    3.2393 C.ar    1  UNL1        0.0175
     35 C          63.4304   92.3161    2.3277 C.ar    1  UNL1        0.0053
     36 C          63.0683   93.4770    1.4497 C.ar    1  UNL1        0.0715
     37 C          61.6773   94.0375    1.4832 C.ar    1  UNL1        0.0053
     38 C          60.6486   93.4371    2.3949 C.ar    1  UNL1        0.0175
     39 C          64.0970   94.0774    0.5381 C.3     1  UNL1        0.4186
     40 F          65.1259   94.6778   -0.3736 F       1  UNL1       -0.1659
     41 F          63.2339   95.2917    0.3638 F       1  UNL1       -0.1659
     42 F          64.9603   92.8631    0.7123 F       1  UNL1       -0.1659
@<TRIPOS>BOND
     1     7     8    2
     2     8     9   am
     3     9     1    1
     4     1     2    1
     5     2     3    1
     6     3     4    1
     7     4    27    1
     8    27    28    1
     9    28    29   ar
    10    29    30   ar
    11    30    31   ar
    12    31    33    1
    13    33    34   ar
    14    34    35   ar
    15    35    36   ar
    16    36    39    1
    17    39    40    1
    18    39    41    1
    19    39    42    1
    20    36    37   ar
    21    37    38   ar
    22    31    32   ar
    23     4     5    1
    24     5     6    1
    25     8    10   am
    26    10    13    1
    27    13    20    1
    28    20    21    1
    29    21    22   ar
    30    22    23   ar
    31    23    24   ar
    32    24    25   ar
    33    25    26   ar
    34    13    14    1
    35    14    15   ar
    36    15    16   ar
    37    16    17   ar
    38    17    18   ar
    39    18    19   ar
    40     6     1    1
    41    26    21   ar
    42    19    14   ar
    43    32    28   ar
    44    38    33   ar
    45     9    11    1
    46    10    12    1
@<TRIPOS>MOLECULE
*****
 42 46 0 0 0
SMALL
GASTEIGER

@<TRIPOS>ATOM
      1 C          61.9480   89.3792   10.9204 C.3     1  UNL1        0.0758
      2 C          60.8551   90.3678   10.6406 C.3     1  UNL1        0.0370
      3 C          59.9305   90.1548    9.4788 C.3     1  UNL1        0.0741
      4 N          60.0988   88.9533    8.5968 N.3     1  UNL1       -0.2688
      5 C          61.1917   87.9647    8.8766 C.3     1  UNL1        0.0741
      6 C          62.1162   88.1776   10.0384 C.3     1  UNL1        0.0370
      7 O          63.8080   91.7329   10.9455 O.2     1  UNL1       -0.2528
      8 C          63.8026   90.7689   12.0947 C.2     1  UNL1        0.3009
      9 N          62.8726   89.5921   12.0822 N.am    1  UNL1       -0.2905
     10 N          64.7272   90.9819   13.2566 N.am    1  UNL1       -0.2864
     11 H          62.8691   88.9595   12.8365 H       1  UNL1        0.1509
     12 H          64.7237   90.3492   14.0109 H       1  UNL1        0.1512
     13 C          65.6572   92.1587   13.2691 C.3     1  UNL1        0.1015
     14 C          66.7667   92.2272   14.2763 C.ar    1  UNL1       -0.0041
     15 C          68.1742   91.9129   13.8641 C.ar    1  UNL1       -0.0027
     16 C          69.2837   91.9814   14.8713 C.ar    1  UNL1       -0.0003
     17 C          68.9856   92.3642   16.2906 C.ar    1  UNL1       -0.0000
     18 C          67.5780   92.6785   16.7028 C.ar    1  UNL1       -0.0003
     19 C          66.4686   92.6100   15.6956 C.ar    1  UNL1       -0.0027
     20 C          65.4777   93.2670   12.2745 C.3     1  UNL1        0.0715
     21 C          66.4701   93.4462   11.1640 C.ar    1  UNL1        0.0801
     22 C          66.7430   94.8155   10.6157 C.ar    1  UNL1        0.1136
     23 N          67.7353   94.9948    9.5053 N.ar    1  UNL1       -0.2395
     24 C          68.4547   93.8047    8.9431 C.ar    1  UNL1        0.1195
     25 C          68.1819   92.4354    9.4913 C.ar    1  UNL1        0.1191
     26 N          67.1895   92.2562   10.6018 N.ar    1  UNL1       -0.2449
     27 C          59.1742   88.7403    7.4350 C.3     1  UNL1        0.1007
     28 C          59.0847   89.7711    6.3490 C.ar    1  UNL1        0.0129
     29 C          57.8305   90.4387    5.8682 C.ar    1  UNL1        0.0176
     30 C          58.2043   91.3954    4.7751 C.ar    1  UNL1        0.0799
     31 N          59.6897   91.3191    4.5803 N.ar    1  UNL1       -0.3038
     32 C          60.2338   90.3152    5.5530 C.ar    1  UNL1        0.0772
     33 C          60.4904   92.1081    3.5871 C.ar    1  UNL1        0.0640
     34 C          61.9543   91.8308    3.4142 C.ar    1  UNL1        0.0175
     35 C          62.7549   92.6198    2.4210 C.ar    1  UNL1        0.0053
     36 C          62.0917   93.6861    1.6008 C.ar    1  UNL1        0.0715
     37 C          60.6277   93.9636    1.7737 C.ar    1  UNL1        0.0053
     38 C          59.8271   93.1745    2.7668 C.ar    1  UNL1        0.0175
     39 C          62.8923   94.4752    0.6076 C.3     1  UNL1        0.4186
     40 F          63.6930   95.2643   -0.3855 F       1  UNL1       -0.1659
     41 F          62.6971   93.3914   -0.4108 F       1  UNL1       -0.1659
     42 F          63.0876   95.5590    1.6261 F       1  UNL1       -0.1659
@<TRIPOS>BOND
     1     7     8    2
     2     8     9   am
     3     9     1    1
     4     1     2    1
     5     2     3    1
     6     3     4    1
     7     4    27    1
     8    27    28    1
     9    28    29   ar
    10    29    30   ar
    11    30    31   ar
    12    31    33    1
    13    33    34   ar
    14    34    35   ar
    15    35    36   ar
    16    36    39    1
    17    39    40    1
    18    39    41    1
    19    39    42    1
    20    36    37   ar
    21    37    38   ar
    22    31    32   ar
    23     4     5    1
    24     5     6    1
    25     8    10   am
    26    10    13    1
    27    13    20    1
    28    20    21    1
    29    21    22   ar
    30    22    23   ar
    31    23    24   ar
    32    24    25   ar
    33    25    26   ar
    34    13    14    1
    35    14    15   ar
    36    15    16   ar
    37    16    17   ar
    38    17    18   ar
    39    18    19   ar
    40     6     1    1
    41    26    21   ar
    42    19    14   ar
    43    32    28   ar
    44    38    33   ar
    45     9    11    1
    46    10    12    1
@<TRIPOS>MOLECULE
*****
 42 46 0 0 0
SMALL
GASTEIGER

@<TRIPOS>ATOM
      1 C          61.7662   87.7538    9.6442 C.3     1  UNL1        0.0758
      2 C          61.4093   89.2107    9.6499 C.3     1  UNL1        0.0370
      3 C          60.3223   89.7201    8.7506 C.3     1  UNL1        0.0741
      4 N          59.5920   88.7726    7.8457 N.3     1  UNL1       -0.2688
      5 C          59.9488   87.3157    7.8400 C.3     1  UNL1        0.0741
      6 C          61.0359   86.8063    8.7393 C.3     1  UNL1        0.0370
      7 O          61.6899   88.3593   12.5815 O.2     1  UNL1       -0.2528
      8 C          62.8151   87.5471   12.0122 C.2     1  UNL1        0.3009
      9 N          62.8533   87.2444   10.5436 N.am    1  UNL1       -0.2905
     10 N          63.9023   87.0377   12.9115 N.am    1  UNL1       -0.2864
     11 H          63.5918   86.7113   10.1699 H       1  UNL1        0.1509
     12 H          64.6408   86.5046   12.5378 H       1  UNL1        0.1512
     13 C          63.8641   87.3404   14.3801 C.3     1  UNL1        0.1015
     14 C          63.9905   88.7568   14.8574 C.ar    1  UNL1       -0.0041
     15 C          63.3360   89.1773   16.1399 C.ar    1  UNL1       -0.0027
     16 C          63.4624   90.5937   16.6172 C.ar    1  UNL1       -0.0003
     17 C          64.2433   91.5896   15.8120 C.ar    1  UNL1       -0.0000
     18 C          64.8978   91.1691   14.5296 C.ar    1  UNL1       -0.0003
     19 C          64.7714   89.7527   14.0522 C.ar    1  UNL1       -0.0027
     20 C          63.6996   86.2268   15.3713 C.3     1  UNL1        0.0715
     21 C          63.5785   84.8098   14.8943 C.ar    1  UNL1        0.0801
     22 C          62.5220   83.9129   15.4683 C.ar    1  UNL1        0.1136
     23 N          62.4009   82.4960   14.9913 N.ar    1  UNL1       -0.2395
     24 C          63.3362   81.9759   13.9402 C.ar    1  UNL1        0.1195
     25 C          64.3926   82.8728   13.3662 C.ar    1  UNL1        0.1191
     26 N          64.5138   84.2898   13.8432 N.ar    1  UNL1       -0.2449
     27 C          58.5049   89.2820    6.9464 C.3     1  UNL1        0.1007
     28 C          58.8215   90.2952    5.8866 C.ar    1  UNL1        0.0129
     29 C          57.8483   91.2495    5.2604 C.ar    1  UNL1        0.0176
     30 C          58.5922   92.0762    4.2537 C.ar    1  UNL1        0.0799
     31 N          60.0252   91.6327    4.2579 N.ar    1  UNL1       -0.3038
     32 C          60.1669   90.5321    5.2670 C.ar    1  UNL1        0.0772
     33 C          61.1236   92.1918    3.4029 C.ar    1  UNL1        0.0640
     34 C          60.8583   93.3748    2.5197 C.ar    1  UNL1        0.0175
     35 C          61.9567   93.9338    1.6648 C.ar    1  UNL1        0.0053
     36 C          63.3204   93.3100    1.6931 C.ar    1  UNL1        0.0715
     37 C          63.5858   92.1270    2.5763 C.ar    1  UNL1        0.0053
     38 C          62.4875   91.5680    3.4312 C.ar    1  UNL1        0.0175
     39 C          64.4188   93.8691    0.8382 C.3     1  UNL1        0.4186
     40 F          65.5173   94.4281   -0.0168 F       1  UNL1       -0.1659
     41 F          63.7329   95.2030    0.8292 F       1  UNL1       -0.1659
     42 F          65.1048   92.5351    0.8471 F       1  UNL1       -0.1659
@<TRIPOS>BOND
     1     7     8    2
     2     8     9   am
     3     9     1    1
     4     1     2    1
     5     2     3    1
     6     3     4    1
     7     4    27    1
     8    27    28    1
     9    28    29   ar
    10    29    30   ar
    11    30    31   ar
    12    31    33    1
    13    33    34   ar
    14    34    35   ar
    15    35    36   ar
    16    36    39    1
    17    39    40    1
    18    39    41    1
    19    39    42    1
    20    36    37   ar
    21    37    38   ar
    22    31    32   ar
    23     4     5    1
    24     5     6    1
    25     8    10   am
    26    10    13    1
    27    13    20    1
    28    20    21    1
    29    21    22   ar
    30    22    23   ar
    31    23    24   ar
    32    24    25   ar
    33    25    26   ar
    34    13    14    1
    35    14    15   ar
    36    15    16   ar
    37    16    17   ar
    38    17    18   ar
    39    18    19   ar
    40     6     1    1
    41    26    21   ar
    42    19    14   ar
    43    32    28   ar
    44    38    33   ar
    45     9    11    1
    46    10    12    1
