@<TRIPOS>MOLECULE
*****
 33 37 0 0 0
SMALL
GASTEIGER

@<TRIPOS>ATOM
      1 C          61.4830   88.5714   11.2210 C.3     1  UNL1        0.1096
      2 C          60.4524   89.2220   10.3466 C.3     1  UNL1        0.1622
      3 O          59.7536   88.4214    9.2880 O.3     1  UNL1       -0.3502
      4 C          60.0853   86.9702    9.1037 C.3     1  UNL1        0.1637
      5 C          61.1159   86.3196    9.9781 C.3     1  UNL1        0.1257
      6 N          61.8148   87.1202   11.0368 N.am    1  UNL1       -0.2723
      7 C          62.8453   86.4695   11.9111 C.2     1  UNL1        0.2506
      8 O          63.5441   87.2701   12.9697 O.2     1  UNL1       -0.2699
      9 C          63.1771   85.0183   11.7269 C.ar    1  UNL1        0.0729
     10 C          63.3392   84.4555   10.3460 C.ar    1  UNL1        0.0061
     11 C          63.6709   83.0043   10.1618 C.ar    1  UNL1        0.0002
     12 C          63.8406   82.1159   11.3584 C.ar    1  UNL1        0.0016
     13 C          63.6785   82.6788   12.7393 C.ar    1  UNL1        0.0211
     14 C          63.3467   84.1300   12.9235 C.ar    1  UNL1        0.1072
     15 N          63.1847   84.6928   14.3045 N.ar    1  UNL1       -0.1477
     16 N          61.9174   84.7087   15.1070 N.ar    1  UNL1       -0.1447
     17 C          62.2109   85.3642   16.4238 C.ar    1  UNL1        0.1446
     18 C          63.6595   85.7535   16.4352 C.ar    1  UNL1        0.1446
     19 N          64.2613   85.3385   15.1254 N.ar    1  UNL1       -0.1447
     20 C          62.1818   89.3719   12.2796 C.3     1  UNL1        0.0487
     21 C          65.1562   92.5394   11.1089 C.ar    1  UNL1        0.1417
     22 C          64.1057   92.0995   10.1327 C.ar    1  UNL1        0.0367
     23 C          63.1143   91.0437   10.5230 C.ar    1  UNL1       -0.0011
     24 C          63.1733   90.4277   11.8894 C.ar    1  UNL1       -0.0201
     25 C          64.2237   90.8677   12.8656 C.ar    1  UNL1        0.0020
     26 C          65.2152   91.9235   12.4753 C.ar    1  UNL1        0.0727
     27 C          66.2657   92.3634   13.4516 C.ar    1  UNL1        0.2066
     28 N          66.0205   93.0710   14.7512 N.ar    1  UNL1       -0.1828
     29 C          67.3491   93.3178   15.4024 C.ar    1  UNL1        0.3164
     30 O          68.4154   92.7627   14.5052 O.2     1  UNL1       -0.3274
     31 N          67.7458   92.1728   13.2996 N.ar    1  UNL1       -0.0553
     32 C          67.2722   93.2595    9.7846 C.3     1  UNL1        0.2525
     33 O          66.1476   93.5952   10.7187 O.3     1  UNL1       -0.4713
@<TRIPOS>BOND
     1    32    33    1
     2    33    21    1
     3    21    22   ar
     4    22    23   ar
     5    23    24   ar
     6    24    20    1
     7     1    20    1
     8     1     2    1
     9     2     3    1
    10     3     4    1
    11     4     5    1
    12     5     6    1
    13     6     7   am
    14     7     8    2
    15     7     9    1
    16     9    10   ar
    17    10    11   ar
    18    11    12   ar
    19    12    13   ar
    20    13    14   ar
    21    14    15    1
    22    15    16   ar
    23    16    17   ar
    24    17    18   ar
    25    18    19   ar
    26    24    25   ar
    27    25    26   ar
    28    26    27    1
    29    27    28   ar
    30    28    29   ar
    31    29    30   ar
    32    30    31   ar
    33    26    21   ar
    34    31    27   ar
    35     6     1    1
    36    14     9   ar
    37    19    15   ar
@<TRIPOS>MOLECULE
*****
 33 37 0 0 0
SMALL
GASTEIGER

@<TRIPOS>ATOM
      1 C          62.1889   89.5041   11.8871 C.3     1  UNL1        0.1096
      2 C          61.4924   90.5490   11.0666 C.3     1  UNL1        0.1622
      3 O          60.9238   90.1932    9.7249 O.3     1  UNL1       -0.3502
      4 C          61.0518   88.7925    9.2037 C.3     1  UNL1        0.1637
      5 C          61.7483   87.7476   10.0241 C.3     1  UNL1        0.1257
      6 N          62.3169   88.1034   11.3658 N.am    1  UNL1       -0.2723
      7 C          63.0134   87.0586   12.1862 C.2     1  UNL1        0.2506
      8 O          63.5819   87.4144   13.5279 O.2     1  UNL1       -0.2699
      9 C          63.1414   85.6579   11.6650 C.ar    1  UNL1        0.0729
     10 C          63.1863   85.4090   10.1865 C.ar    1  UNL1        0.0061
     11 C          63.3143   84.0083    9.6653 C.ar    1  UNL1        0.0002
     12 C          63.3973   82.8565   10.6225 C.ar    1  UNL1        0.0016
     13 C          63.3523   83.1054   12.1010 C.ar    1  UNL1        0.0211
     14 C          63.2243   84.5061   12.6222 C.ar    1  UNL1        0.1072
     15 N          63.1793   84.7549   14.1008 N.ar    1  UNL1       -0.1477
     16 N          64.3561   85.0589   14.9800 N.ar    1  UNL1       -0.1447
     17 C          63.8538   85.2353   16.3823 C.ar    1  UNL1        0.1446
     18 C          62.3665   85.0403   16.3698 C.ar    1  UNL1        0.1446
     19 N          61.9497   84.7435   14.9598 N.ar    1  UNL1       -0.1447
     20 C          62.7575   89.8600   13.2287 C.3     1  UNL1        0.0487
     21 C          66.6627   92.0792   13.5008 C.ar    1  UNL1        0.1417
     22 C          66.2217   91.1961   14.6302 C.ar    1  UNL1        0.0367
     23 C          64.9199   90.4563   14.5395 C.ar    1  UNL1       -0.0011
     24 C          64.0592   90.5997   13.3194 C.ar    1  UNL1       -0.0201
     25 C          64.5003   91.4828   12.1901 C.ar    1  UNL1        0.0020
     26 C          65.8020   92.2226   12.2807 C.ar    1  UNL1        0.0727
     27 C          66.2430   93.1058   11.1513 C.ar    1  UNL1        0.2066
     28 N          67.4179   92.8645   10.2504 N.ar    1  UNL1       -0.1828
     29 C          67.4875   93.9949    9.2668 C.ar    1  UNL1        0.3164
     30 O          66.3557   94.9347    9.5598 O.2     1  UNL1       -0.3274
     31 N          65.5866   94.3852   10.7244 N.ar    1  UNL1       -0.0553
     32 C          68.7494   92.8018   14.8696 C.3     1  UNL1        0.2525
     33 O          67.9645   92.8190   13.5915 O.3     1  UNL1       -0.4713
@<TRIPOS>BOND
     1    32    33    1
     2    33    21    1
     3    21    22   ar
     4    22    23   ar
     5    23    24   ar
     6    24    20    1
     7     1    20    1
     8     1     2    1
     9     2     3    1
    10     3     4    1
    11     4     5    1
    12     5     6    1
    13     6     7   am
    14     7     8    2
    15     7     9    1
    16     9    10   ar
    17    10    11   ar
    18    11    12   ar
    19    12    13   ar
    20    13    14   ar
    21    14    15    1
    22    15    16   ar
    23    16    17   ar
    24    17    18   ar
    25    18    19   ar
    26    24    25   ar
    27    25    26   ar
    28    26    27    1
    29    27    28   ar
    30    28    29   ar
    31    29    30   ar
    32    30    31   ar
    33    26    21   ar
    34    31    27   ar
    35     6     1    1
    36    14     9   ar
    37    19    15   ar
@<TRIPOS>MOLECULE
*****
 33 37 0 0 0
SMALL
GASTEIGER

@<TRIPOS>ATOM
      1 C          63.2488   88.6374   15.5323 C.3     1  UNL1        0.1096
      2 C          63.1061   88.9224   16.9981 C.3     1  UNL1        0.1622
      3 O          63.0835   87.7915   17.9833 O.3     1  UNL1       -0.3502
      4 C          63.2037   86.3757   17.5027 C.3     1  UNL1        0.1637
      5 C          63.3464   86.0907   16.0370 C.3     1  UNL1        0.1257
      6 N          63.3690   87.2216   15.0517 N.am    1  UNL1       -0.2723
      7 C          63.5117   86.9366   13.5860 C.2     1  UNL1        0.2506
      8 O          63.5343   88.0675   12.6009 O.2     1  UNL1       -0.2699
      9 C          63.6319   85.5208   13.1055 C.ar    1  UNL1        0.0729
     10 C          64.4723   84.5391   13.8670 C.ar    1  UNL1        0.0061
     11 C          64.5925   83.1232   13.3865 C.ar    1  UNL1        0.0002
     12 C          63.8723   82.6891   12.1444 C.ar    1  UNL1        0.0016
     13 C          63.0320   83.6708   11.3828 C.ar    1  UNL1        0.0211
     14 C          62.9118   85.0866   11.8634 C.ar    1  UNL1        0.1072
     15 N          62.0713   86.0684   11.1018 N.ar    1  UNL1       -0.1477
     16 N          62.3151   86.5344    9.6970 N.ar    1  UNL1       -0.1447
     17 C          61.2341   87.5104    9.3382 C.ar    1  UNL1        0.1446
     18 C          60.3222   87.6476   10.5213 C.ar    1  UNL1        0.1446
     19 N          60.8397   86.7564   11.6112 N.ar    1  UNL1       -0.1447
     20 C          63.2713   89.7683   14.5471 C.3     1  UNL1        0.0487
     21 C          66.6474   92.7428   14.6130 C.ar    1  UNL1        0.1417
     22 C          65.9131   92.4137   15.8788 C.ar    1  UNL1        0.0367
     23 C          64.7877   91.4222   15.8568 C.ar    1  UNL1       -0.0011
     24 C          64.3967   90.7598   14.5691 C.ar    1  UNL1       -0.0201
     25 C          65.1311   91.0890   13.3033 C.ar    1  UNL1        0.0020
     26 C          66.2564   92.0805   13.3252 C.ar    1  UNL1        0.0727
     27 C          66.9908   92.4096   12.0593 C.ar    1  UNL1        0.2066
     28 N          66.4543   93.2136   10.9123 N.ar    1  UNL1       -0.1828
     29 C          67.5225   93.2934    9.8623 C.ar    1  UNL1        0.3164
     30 O          68.7194   92.5387   10.3604 O.2     1  UNL1       -0.3274
     31 N          68.3907   91.9925   11.7182 N.ar    1  UNL1       -0.0553
     32 C          68.8169   93.6601   15.7092 C.3     1  UNL1        0.2525
     33 O          67.7728   93.7343   14.6349 O.3     1  UNL1       -0.4713
@<TRIPOS>BOND
     1    32    33    1
     2    33    21    1
     3    21    22   ar
     4    22    23   ar
     5    23    24   ar
     6    24    20    1
     7     1    20    1
     8     1     2    1
     9     2     3    1
    10     3     4    1
    11     4     5    1
    12     5     6    1
    13     6     7   am
    14     7     8    2
    15     7     9    1
    16     9    10   ar
    17    10    11   ar
    18    11    12   ar
    19    12    13   ar
    20    13    14   ar
    21    14    15    1
    22    15    16   ar
    23    16    17   ar
    24    17    18   ar
    25    18    19   ar
    26    24    25   ar
    27    25    26   ar
    28    26    27    1
    29    27    28   ar
    30    28    29   ar
    31    29    30   ar
    32    30    31   ar
    33    26    21   ar
    34    31    27   ar
    35     6     1    1
    36    14     9   ar
    37    19    15   ar
@<TRIPOS>MOLECULE
*****
 33 37 0 0 0
SMALL
GASTEIGER

@<TRIPOS>ATOM
      1 C          62.2779   86.3905   10.2356 C.3     1  UNL1        0.1096
      2 C          62.4618   86.6989    8.7791 C.3     1  UNL1        0.1622
      3 O          62.9518   85.6341    7.8431 O.3     1  UNL1       -0.3502
      4 C          63.2579   84.2610    8.3634 C.3     1  UNL1        0.1637
      5 C          63.0741   83.9526    9.8198 C.3     1  UNL1        0.1257
      6 N          62.5840   85.0173   10.7559 N.am    1  UNL1       -0.2723
      7 C          62.4002   84.7089   12.2123 C.2     1  UNL1        0.2506
      8 O          61.9102   85.7736   13.1483 O.2     1  UNL1       -0.2699
      9 C          62.7063   83.3358   12.7326 C.ar    1  UNL1        0.0729
     10 C          62.6181   82.1502   11.8179 C.ar    1  UNL1        0.0061
     11 C          62.9242   80.7771   12.3383 C.ar    1  UNL1        0.0002
     12 C          63.3186   80.5895   13.7733 C.ar    1  UNL1        0.0016
     13 C          63.4068   81.7750   14.6879 C.ar    1  UNL1        0.0211
     14 C          63.1006   83.1481   14.1676 C.ar    1  UNL1        0.1072
     15 N          63.1889   84.3337   15.0823 N.ar    1  UNL1       -0.1477
     16 N          62.1853   84.7158   16.1297 N.ar    1  UNL1       -0.1447
     17 C          62.6723   85.9635   16.8050 C.ar    1  UNL1        0.1446
     18 C          63.9768   86.3526   16.1750 C.ar    1  UNL1        0.1446
     19 N          64.2961   85.3453   15.1103 N.ar    1  UNL1       -0.1447
     20 C          61.7879   87.4552   11.1716 C.3     1  UNL1        0.0487
     21 C          63.8091   91.4747   11.2631 C.ar    1  UNL1        0.1417
     22 C          63.1813   90.9797    9.9940 C.ar    1  UNL1        0.0367
     23 C          62.5075   89.6398    9.9635 C.ar    1  UNL1       -0.0011
     24 C          62.4616   88.7950   11.2021 C.ar    1  UNL1       -0.0201
     25 C          63.0895   89.2901   12.4712 C.ar    1  UNL1        0.0020
     26 C          63.7632   90.6299   12.5017 C.ar    1  UNL1        0.0727
     27 C          64.3911   91.1250   13.7709 C.ar    1  UNL1        0.2066
     28 N          65.8409   91.4561   13.9666 N.ar    1  UNL1       -0.1828
     29 C          66.0251   91.9115   15.3839 C.ar    1  UNL1        0.3164
     30 O          64.6891   91.8619   16.0642 O.2     1  UNL1       -0.3274
     31 N          63.6792   91.3758   15.0673 N.ar    1  UNL1       -0.0553
     32 C          65.7595   93.0295   10.5361 C.3     1  UNL1        0.2525
     33 O          64.4828   92.8145   11.2936 O.3     1  UNL1       -0.4713
@<TRIPOS>BOND
     1    32    33    1
     2    33    21    1
     3    21    22   ar
     4    22    23   ar
     5    23    24   ar
     6    24    20    1
     7     1    20    1
     8     1     2    1
     9     2     3    1
    10     3     4    1
    11     4     5    1
    12     5     6    1
    13     6     7   am
    14     7     8    2
    15     7     9    1
    16     9    10   ar
    17    10    11   ar
    18    11    12   ar
    19    12    13   ar
    20    13    14   ar
    21    14    15    1
    22    15    16   ar
    23    16    17   ar
    24    17    18   ar
    25    18    19   ar
    26    24    25   ar
    27    25    26   ar
    28    26    27    1
    29    27    28   ar
    30    28    29   ar
    31    29    30   ar
    32    30    31   ar
    33    26    21   ar
    34    31    27   ar
    35     6     1    1
    36    14     9   ar
    37    19    15   ar
@<TRIPOS>MOLECULE
*****
 33 37 0 0 0
SMALL
GASTEIGER

@<TRIPOS>ATOM
      1 C          63.1185   89.4048   14.3461 C.3     1  UNL1        0.1096
      2 C          63.0495   90.1806   15.6281 C.3     1  UNL1        0.1622
      3 O          63.1914   89.4717   16.9423 O.3     1  UNL1       -0.3502
      4 C          63.4024   87.9869   16.9746 C.3     1  UNL1        0.1637
      5 C          63.4715   87.2112   15.6927 C.3     1  UNL1        0.1257
      6 N          63.3296   87.9201   14.3784 N.am    1  UNL1       -0.2723
      7 C          63.3987   87.1443   13.0965 C.2     1  UNL1        0.2506
      8 O          63.2567   87.8533   11.7822 O.2     1  UNL1       -0.2699
      9 C          63.6097   85.6596   13.1287 C.ar    1  UNL1        0.0729
     10 C          64.3641   85.0338   14.2641 C.ar    1  UNL1        0.0061
     11 C          64.5751   83.5491   14.2964 C.ar    1  UNL1        0.0002
     12 C          64.0317   82.6901   13.1933 C.ar    1  UNL1        0.0016
     13 C          63.2773   83.3159   12.0579 C.ar    1  UNL1        0.0211
     14 C          63.0663   84.8007   12.0256 C.ar    1  UNL1        0.1072
     15 N          62.3118   85.4265   10.8901 N.ar    1  UNL1       -0.1477
     16 N          61.0088   86.1619   10.9965 N.ar    1  UNL1       -0.1447
     17 C          60.6196   86.6167    9.6211 C.ar    1  UNL1        0.1446
     18 C          61.6821   86.1622    8.6647 C.ar    1  UNL1        0.1446
     19 N          62.7279   85.4266    9.4490 N.ar    1  UNL1       -0.1447
     20 C          62.9766   90.1138   13.0319 C.3     1  UNL1        0.0487
     21 C          66.2285   92.8768   11.6031 C.ar    1  UNL1        0.1417
     22 C          65.1096   92.4948   10.6800 C.ar    1  UNL1        0.0367
     23 C          64.0256   91.5738   11.1563 C.ar    1  UNL1       -0.0011
     24 C          64.0606   91.0348   12.5556 C.ar    1  UNL1       -0.0201
     25 C          65.1794   91.4168   13.4787 C.ar    1  UNL1        0.0020
     26 C          66.2634   92.3378   13.0024 C.ar    1  UNL1        0.0727
     27 C          67.3823   92.7198   13.9256 C.ar    1  UNL1        0.2066
     28 N          67.2677   93.6058   15.1305 N.ar    1  UNL1       -0.1828
     29 C          68.6268   93.7164   15.7555 C.ar    1  UNL1        0.3164
     30 O          69.5815   92.8987   14.9368 O.2     1  UNL1       -0.3274
     31 N          68.8123   92.2828   13.8059 N.ar    1  UNL1       -0.0553
     32 C          67.3775   94.1956    9.6820 C.3     1  UNL1        0.2525
     33 O          67.3124   93.7978   11.1268 O.3     1  UNL1       -0.4713
@<TRIPOS>BOND
     1    32    33    1
     2    33    21    1
     3    21    22   ar
     4    22    23   ar
     5    23    24   ar
     6    24    20    1
     7     1    20    1
     8     1     2    1
     9     2     3    1
    10     3     4    1
    11     4     5    1
    12     5     6    1
    13     6     7   am
    14     7     8    2
    15     7     9    1
    16     9    10   ar
    17    10    11   ar
    18    11    12   ar
    19    12    13   ar
    20    13    14   ar
    21    14    15    1
    22    15    16   ar
    23    16    17   ar
    24    17    18   ar
    25    18    19   ar
    26    24    25   ar
    27    25    26   ar
    28    26    27    1
    29    27    28   ar
    30    28    29   ar
    31    29    30   ar
    32    30    31   ar
    33    26    21   ar
    34    31    27   ar
    35     6     1    1
    36    14     9   ar
    37    19    15   ar
