@<TRIPOS>MOLECULE
*****
 31 34 0 0 0
SMALL
GASTEIGER

@<TRIPOS>ATOM
      1 C          64.0143   88.3816   14.9029 C.3     1  UNL1        0.0527
      2 C          64.0235   89.3972   13.7991 C.ar    1  UNL1        0.0673
      3 N          64.6075   90.7768   13.8752 N.ar    1  UNL1       -0.2282
      4 C          64.3954   91.4438   12.5485 C.ar    1  UNL1        0.1664
      5 S          63.6803   90.4765   11.6525 S.2     1  UNL1       -0.0517
      6 C          63.4505   89.2116   12.4254 C.ar    1  UNL1        0.0457
      7 N          64.8232   92.8341   12.1822 N.am    1  UNL1       -0.2483
      8 C          65.9222   93.0417   11.1826 C.2     1  UNL1        0.3094
      9 O          66.5933   91.8590   10.5493 O.2     1  UNL1       -0.2522
     10 N          66.3500   94.4319   10.8163 N.am    1  UNL1       -0.2572
     11 C          65.7747   95.7045   11.3637 C.3     1  UNL1        0.0955
     12 C          66.4974   96.8527   10.7240 C.3     1  UNL1        0.0238
     13 C          67.5194   96.2898    9.7813 C.3     1  UNL1        0.0310
     14 C          67.4283   94.7936    9.8383 C.3     1  UNL1        0.1528
     15 H          64.3827   93.6102   12.5978 H       1  UNL1        0.1583
     16 C          68.2680   93.8288    9.0549 C.2     1  UNL1        0.2375
     17 N          69.2563   92.9491    9.7616 N.am    1  UNL1       -0.3275
     18 O          68.1195   93.7435    7.5647 O.2     1  UNL1       -0.2736
     19 H          69.3538   93.0050   10.7397 H       1  UNL1        0.1450
     20 H          69.8074   92.3158    9.2474 H       1  UNL1        0.1450
     21 C          62.7675   87.9778   11.9142 C.ar    1  UNL1        0.0100
     22 C          61.6876   88.0924   10.8795 C.ar    1  UNL1        0.0212
     23 C          61.0047   86.8586   10.3684 C.ar    1  UNL1        0.0985
     24 N          61.4016   85.5102   10.8920 N.ar    1  UNL1       -0.2472
     25 C          62.4815   85.3955   11.9268 C.ar    1  UNL1        0.0715
     26 C          63.1644   86.6294   12.4379 C.ar    1  UNL1        0.0163
     27 C          62.8784   84.0471   12.4504 C.3     1  UNL1        0.1144
     28 C          63.3905   82.6374   12.4698 C.3     1  UNL1        0.0212
     29 C          63.3480   83.4023   11.1802 C.3     1  UNL1        0.0212
     30 C          62.5466   84.2236   13.9026 C.1     1  UNL1        0.0768
     31 N          62.2149   84.4002   15.3547 N.1     1  UNL1       -0.1955
@<TRIPOS>BOND
     1     1     2    1
     2     2     3   ar
     3     3     4   ar
     4     4     7    1
     5     7     8   am
     6     8     9    2
     7     8    10   am
     8    10    11    1
     9    11    12    1
    10    12    13    1
    11    13    14    1
    12    14    16    1
    13    16    17   am
    14    16    18    2
    15     4     5   ar
    16     5     6   ar
    17     6    21    1
    18    21    22   ar
    19    22    23   ar
    20    23    24   ar
    21    24    25   ar
    22    25    27    1
    23    27    30    1
    24    30    31    3
    25    27    28    1
    26    28    29    1
    27    25    26   ar
    28     6     2   ar
    29    26    21   ar
    30    14    10    1
    31    29    27    1
    32     7    15    1
    33    17    19    1
    34    17    20    1
@<TRIPOS>MOLECULE
*****
 31 34 0 0 0
SMALL
GASTEIGER

@<TRIPOS>ATOM
      1 C          61.9113   90.6388   11.7686 C.3     1  UNL1        0.0527
      2 C          62.5264   89.3083   12.0870 C.ar    1  UNL1        0.0673
      3 N          62.3212   88.0359   11.3195 N.ar    1  UNL1       -0.2282
      4 C          63.1227   86.9577   11.9868 C.ar    1  UNL1        0.1664
      5 S          63.8232   87.5638   13.1666 S.2     1  UNL1       -0.0517
      6 C          63.4546   89.0166   13.2285 C.ar    1  UNL1        0.0457
      7 N          63.2086   85.5251   11.5509 N.am    1  UNL1       -0.2483
      8 C          62.7779   84.4307   12.4819 C.2     1  UNL1        0.3094
      9 O          62.2613   84.7690   13.8490 O.2     1  UNL1       -0.2522
     10 N          62.8638   82.9980   12.0460 N.am    1  UNL1       -0.2572
     11 C          63.3567   82.5091   10.7163 C.3     1  UNL1        0.0955
     12 C          63.2693   81.0117   10.7117 C.3     1  UNL1        0.0238
     13 C          62.7225   80.5752   12.0385 C.3     1  UNL1        0.0310
     14 C          62.4718   81.8028   12.8631 C.3     1  UNL1        0.1528
     15 H          63.5476   85.3031   10.6537 H       1  UNL1        0.1583
     16 C          61.9252   81.8303   14.2596 C.2     1  UNL1        0.2375
     17 N          62.7226   82.4567   15.3650 N.am    1  UNL1       -0.3275
     18 O          60.5811   81.2314   14.5509 O.2     1  UNL1       -0.2736
     19 H          63.6047   82.8497   15.1739 H       1  UNL1        0.1450
     20 H          62.3637   82.4747   16.2816 H       1  UNL1        0.1450
     21 C          63.9308   90.0042   14.2523 C.ar    1  UNL1        0.0100
     22 C          63.1501   90.2092   15.5166 C.ar    1  UNL1        0.0212
     23 C          63.6263   91.1967   16.5402 C.ar    1  UNL1        0.0985
     24 N          64.8832   91.9792   16.2996 N.ar    1  UNL1       -0.2472
     25 C          65.6639   91.7742   15.0354 C.ar    1  UNL1        0.0715
     26 C          65.1877   90.7867   14.0117 C.ar    1  UNL1        0.0163
     27 C          66.9208   92.5567   14.7948 C.3     1  UNL1        0.1144
     28 C          68.3161   93.0747   14.9811 C.3     1  UNL1        0.0212
     29 C          67.7559   92.0669   15.9404 C.3     1  UNL1        0.0212
     30 C          66.5222   93.3184   13.5656 C.1     1  UNL1        0.0768
     31 N          66.1236   94.0802   12.3364 N.1     1  UNL1       -0.1955
@<TRIPOS>BOND
     1     1     2    1
     2     2     3   ar
     3     3     4   ar
     4     4     7    1
     5     7     8   am
     6     8     9    2
     7     8    10   am
     8    10    11    1
     9    11    12    1
    10    12    13    1
    11    13    14    1
    12    14    16    1
    13    16    17   am
    14    16    18    2
    15     4     5   ar
    16     5     6   ar
    17     6    21    1
    18    21    22   ar
    19    22    23   ar
    20    23    24   ar
    21    24    25   ar
    22    25    27    1
    23    27    30    1
    24    30    31    3
    25    27    28    1
    26    28    29    1
    27    25    26   ar
    28     6     2   ar
    29    26    21   ar
    30    14    10    1
    31    29    27    1
    32     7    15    1
    33    17    19    1
    34    17    20    1
@<TRIPOS>MOLECULE
*****
 31 34 0 0 0
SMALL
GASTEIGER

@<TRIPOS>ATOM
      1 C          61.9188   89.9058   10.2362 C.3     1  UNL1        0.0527
      2 C          62.3913   88.9375   11.2798 C.ar    1  UNL1        0.0673
      3 N          61.8946   87.5351   11.4707 N.ar    1  UNL1       -0.2282
      4 C          62.6399   86.9324   12.6247 C.ar    1  UNL1        0.1664
      5 S          63.5972   87.9624   13.1468 S.2     1  UNL1       -0.0517
      6 C          63.4436   89.2016   12.3156 C.ar    1  UNL1        0.0457
      7 N          62.4595   85.5436   13.1620 N.am    1  UNL1       -0.2483
      8 C          62.8079   84.3589   12.3106 C.2     1  UNL1        0.3094
      9 O          63.3368   84.5629   10.9217 O.2     1  UNL1       -0.2522
     10 N          62.6275   82.9701   12.8479 N.am    1  UNL1       -0.2572
     11 C          62.1118   82.6119   14.2101 C.3     1  UNL1        0.0955
     12 C          62.0967   81.1161   14.3215 C.3     1  UNL1        0.0238
     13 C          62.6032   80.5499   13.0281 C.3     1  UNL1        0.0310
     14 C          62.9313   81.6958   12.1173 C.3     1  UNL1        0.1528
     15 H          62.1125   85.4097   14.0735 H       1  UNL1        0.1583
     16 C          63.4686   81.5863   10.7213 C.2     1  UNL1        0.2375
     17 N          64.5760   82.4923   10.2706 N.am    1  UNL1       -0.3275
     18 O          62.8987   80.5709    9.7756 O.2     1  UNL1       -0.2736
     19 H          64.9501   83.1588   10.8912 H       1  UNL1        0.1450
     20 H          64.9287   82.4204    9.3543 H       1  UNL1        0.1450
     21 C          64.2081   90.4804   12.4898 C.ar    1  UNL1        0.0100
     22 C          64.1654   91.5313   11.4203 C.ar    1  UNL1        0.0212
     23 C          64.9299   92.8101   11.5945 C.ar    1  UNL1        0.0985
     24 N          65.7370   93.0379   12.8382 N.ar    1  UNL1       -0.2472
     25 C          65.7796   91.9871   13.9077 C.ar    1  UNL1        0.0715
     26 C          65.0151   90.7083   13.7335 C.ar    1  UNL1        0.0163
     27 C          66.5867   92.2149   15.1513 C.3     1  UNL1        0.1144
     28 C          67.7775   92.3816   16.0480 C.3     1  UNL1        0.0212
     29 C          67.9720   92.1178   14.5843 C.3     1  UNL1        0.0212
     30 C          65.4817   92.3912   16.1503 C.1     1  UNL1        0.0768
     31 N          64.3768   92.5676   17.1493 N.1     1  UNL1       -0.1955
@<TRIPOS>BOND
     1     1     2    1
     2     2     3   ar
     3     3     4   ar
     4     4     7    1
     5     7     8   am
     6     8     9    2
     7     8    10   am
     8    10    11    1
     9    11    12    1
    10    12    13    1
    11    13    14    1
    12    14    16    1
    13    16    17   am
    14    16    18    2
    15     4     5   ar
    16     5     6   ar
    17     6    21    1
    18    21    22   ar
    19    22    23   ar
    20    23    24   ar
    21    24    25   ar
    22    25    27    1
    23    27    30    1
    24    30    31    3
    25    27    28    1
    26    28    29    1
    27    25    26   ar
    28     6     2   ar
    29    26    21   ar
    30    14    10    1
    31    29    27    1
    32     7    15    1
    33    17    19    1
    34    17    20    1
@<TRIPOS>MOLECULE
*****
 31 34 0 0 0
SMALL
GASTEIGER

@<TRIPOS>ATOM
      1 C          60.5482   90.5901   11.3584 C.3     1  UNL1        0.0527
      2 C          61.4401   89.3892   11.4692 C.ar    1  UNL1        0.0673
      3 N          61.0174   87.9591   11.3069 N.ar    1  UNL1       -0.2282
      4 C          62.2273   87.0935   11.4991 C.ar    1  UNL1        0.1664
      5 S          63.3977   87.9886   11.7801 S.2     1  UNL1       -0.0517
      6 C          62.9112   89.4074   11.7617 C.ar    1  UNL1        0.0457
      7 N          62.2609   85.5958   11.4235 N.am    1  UNL1       -0.2483
      8 C          62.6533   84.7926   12.6280 C.2     1  UNL1        0.3094
      9 O          63.0122   85.4872   13.9083 O.2     1  UNL1       -0.2522
     10 N          62.6869   83.2949   12.5524 N.am    1  UNL1       -0.2572
     11 C          62.3558   82.4653   11.3474 C.3     1  UNL1        0.0955
     12 C          62.5218   81.0216   11.7188 C.3     1  UNL1        0.0238
     13 C          62.9555   80.9589   13.1533 C.3     1  UNL1        0.0310
     14 C          63.0576   82.3639   13.6686 C.3     1  UNL1        0.1528
     15 H          62.0255   85.1399   10.5832 H       1  UNL1        0.1583
     16 C          63.4596   82.7670   15.0562 C.2     1  UNL1        0.2375
     17 N          62.4436   83.3535   15.9910 N.am    1  UNL1       -0.3275
     18 O          64.8779   82.5837   15.5093 O.2     1  UNL1       -0.2736
     19 H          61.5128   83.4738   15.6937 H       1  UNL1        0.1450
     20 H          62.7076   83.6181   16.9018 H       1  UNL1        0.1450
     21 C          63.7487   90.6298   11.9948 C.ar    1  UNL1        0.0100
     22 C          63.9574   91.6186   10.8863 C.ar    1  UNL1        0.0212
     23 C          64.7949   92.8409   11.1194 C.ar    1  UNL1        0.0985
     24 N          65.4237   93.0745   12.4611 N.ar    1  UNL1       -0.2472
     25 C          65.2151   92.0857   13.5696 C.ar    1  UNL1        0.0715
     26 C          64.3776   90.8634   13.3364 C.ar    1  UNL1        0.0163
     27 C          65.8439   92.3193   14.9112 C.3     1  UNL1        0.1144
     28 C          66.8765   92.6643   15.9430 C.3     1  UNL1        0.0212
     29 C          67.2249   92.7213   14.4852 C.3     1  UNL1        0.0212
     30 C          64.6814   91.9985   15.8032 C.1     1  UNL1        0.0768
     31 N          63.5189   91.6777   16.6951 N.1     1  UNL1       -0.1955
@<TRIPOS>BOND
     1     1     2    1
     2     2     3   ar
     3     3     4   ar
     4     4     7    1
     5     7     8   am
     6     8     9    2
     7     8    10   am
     8    10    11    1
     9    11    12    1
    10    12    13    1
    11    13    14    1
    12    14    16    1
    13    16    17   am
    14    16    18    2
    15     4     5   ar
    16     5     6   ar
    17     6    21    1
    18    21    22   ar
    19    22    23   ar
    20    23    24   ar
    21    24    25   ar
    22    25    27    1
    23    27    30    1
    24    30    31    3
    25    27    28    1
    26    28    29    1
    27    25    26   ar
    28     6     2   ar
    29    26    21   ar
    30    14    10    1
    31    29    27    1
    32     7    15    1
    33    17    19    1
    34    17    20    1
@<TRIPOS>MOLECULE
*****
 31 34 0 0 0
SMALL
GASTEIGER

@<TRIPOS>ATOM
      1 C          58.7574   89.2281   11.8546 C.3     1  UNL1        0.0527
      2 C          60.2566   89.2030   11.8965 C.ar    1  UNL1        0.0673
      3 N          61.1219   89.8906   12.9106 N.ar    1  UNL1       -0.2282
      4 C          62.5538   89.5985   12.5725 C.ar    1  UNL1        0.1664
      5 S          62.5734   88.7304   11.3494 S.2     1  UNL1       -0.0517
      6 C          61.1537   88.4860   10.9316 C.ar    1  UNL1        0.0457
      7 N          63.7551   90.0885   13.3253 N.am    1  UNL1       -0.2483
      8 C          64.6096   91.1774   12.7473 C.2     1  UNL1        0.3094
      9 O          64.2627   91.7764   11.4165 O.2     1  UNL1       -0.2522
     10 N          65.8109   91.6674   13.5001 N.am    1  UNL1       -0.2572
     11 C          66.2799   91.1670   14.8341 C.3     1  UNL1        0.0955
     12 C          67.5130   91.9342   15.2095 C.3     1  UNL1        0.0238
     13 C          67.8061   92.9087   14.1076 C.3     1  UNL1        0.0310
     14 C          66.7541   92.7438   13.0511 C.3     1  UNL1        0.1528
     15 H          63.9828   89.6953   14.1987 H       1  UNL1        0.1583
     16 C          66.6617   93.5192   11.7705 C.2     1  UNL1        0.2375
     17 N          65.6736   94.6405   11.6422 N.am    1  UNL1       -0.3275
     18 O          67.5574   93.1735   10.6179 O.2     1  UNL1       -0.2736
     19 H          65.0857   94.8675   12.3986 H       1  UNL1        0.1450
     20 H          65.6130   95.1494   10.8016 H       1  UNL1        0.1450
     21 C          60.7091   87.6681    9.7553 C.ar    1  UNL1        0.0100
     22 C          59.3148   87.8165    9.2227 C.ar    1  UNL1        0.0212
     23 C          58.8703   86.9986    8.0465 C.ar    1  UNL1        0.0985
     24 N          59.8201   86.0323    7.4030 N.ar    1  UNL1       -0.2472
     25 C          61.2144   85.8839    7.9356 C.ar    1  UNL1        0.0715
     26 C          61.6589   86.7018    9.1118 C.ar    1  UNL1        0.0163
     27 C          62.1642   84.9176    7.2921 C.3     1  UNL1        0.1144
     28 C          62.8226   84.0798    6.2364 C.3     1  UNL1        0.0212
     29 C          61.6549   84.9519    5.8816 C.3     1  UNL1        0.0212
     30 C          63.0035   84.5477    8.4790 C.1     1  UNL1        0.0768
     31 N          63.8428   84.1780    9.6659 N.1     1  UNL1       -0.1955
@<TRIPOS>BOND
     1     1     2    1
     2     2     3   ar
     3     3     4   ar
     4     4     7    1
     5     7     8   am
     6     8     9    2
     7     8    10   am
     8    10    11    1
     9    11    12    1
    10    12    13    1
    11    13    14    1
    12    14    16    1
    13    16    17   am
    14    16    18    2
    15     4     5   ar
    16     5     6   ar
    17     6    21    1
    18    21    22   ar
    19    22    23   ar
    20    23    24   ar
    21    24    25   ar
    22    25    27    1
    23    27    30    1
    24    30    31    3
    25    27    28    1
    26    28    29    1
    27    25    26   ar
    28     6     2   ar
    29    26    21   ar
    30    14    10    1
    31    29    27    1
    32     7    15    1
    33    17    19    1
    34    17    20    1
@<TRIPOS>MOLECULE
*****
 31 34 0 0 0
SMALL
GASTEIGER

@<TRIPOS>ATOM
      1 C          58.4177   89.1620   11.9850 C.3     1  UNL1        0.0527
      2 C          59.8966   89.3579   11.8287 C.ar    1  UNL1        0.0673
      3 N          60.8510   89.7668   12.9112 N.ar    1  UNL1       -0.2282
      4 C          62.2251   89.8409   12.3141 C.ar    1  UNL1        0.1664
      5 S          62.1198   89.4778   10.8625 S.2     1  UNL1       -0.0517
      6 C          60.6807   89.1793   10.5625 C.ar    1  UNL1        0.0457
      7 N          63.4835   90.2128   13.0409 N.am    1  UNL1       -0.2483
      8 C          64.4056   91.2455   12.4637 C.2     1  UNL1        0.3094
      9 O          64.0694   91.9064   11.1597 O.2     1  UNL1       -0.2522
     10 N          65.6640   91.6174   13.1906 N.am    1  UNL1       -0.2572
     11 C          66.1299   91.0450   14.4964 C.3     1  UNL1        0.0955
     12 C          67.4312   91.7008   14.8520 C.3     1  UNL1        0.0238
     13 C          67.7695   92.6786   13.7660 C.3     1  UNL1        0.0310
     14 C          66.6772   92.6270   12.7391 C.3     1  UNL1        0.1528
     15 H          63.7041   89.7790   13.8967 H       1  UNL1        0.1583
     16 C          66.6102   93.4420   11.4817 C.2     1  UNL1        0.2375
     17 N          65.5773   94.5206   11.3411 N.am    1  UNL1       -0.3275
     18 O          67.5761   93.1785   10.3647 O.2     1  UNL1       -0.2736
     19 H          64.9434   94.6936   12.0742 H       1  UNL1        0.1450
     20 H          65.5334   95.0555   10.5158 H       1  UNL1        0.1450
     21 C          60.1236   88.7734    9.2302 C.ar    1  UNL1        0.0100
     22 C          59.8010   87.3338    8.9593 C.ar    1  UNL1        0.0212
     23 C          59.2439   86.9280    7.6270 C.ar    1  UNL1        0.0985
     24 N          59.0095   87.9617    6.5657 N.ar    1  UNL1       -0.2472
     25 C          59.3321   89.4013    6.8367 C.ar    1  UNL1        0.0715
     26 C          59.8892   89.8071    8.1689 C.ar    1  UNL1        0.0163
     27 C          59.0976   90.4351    5.7754 C.3     1  UNL1        0.1144
     28 C          59.3839   91.4681    4.7262 C.3     1  UNL1        0.0212
     29 C          60.5158   90.7920    5.4416 C.3     1  UNL1        0.0212
     30 C          57.5980   90.4372    5.7406 C.1     1  UNL1        0.0768
     31 N          56.0985   90.4392    5.7057 N.1     1  UNL1       -0.1955
@<TRIPOS>BOND
     1     1     2    1
     2     2     3   ar
     3     3     4   ar
     4     4     7    1
     5     7     8   am
     6     8     9    2
     7     8    10   am
     8    10    11    1
     9    11    12    1
    10    12    13    1
    11    13    14    1
    12    14    16    1
    13    16    17   am
    14    16    18    2
    15     4     5   ar
    16     5     6   ar
    17     6    21    1
    18    21    22   ar
    19    22    23   ar
    20    23    24   ar
    21    24    25   ar
    22    25    27    1
    23    27    30    1
    24    30    31    3
    25    27    28    1
    26    28    29    1
    27    25    26   ar
    28     6     2   ar
    29    26    21   ar
    30    14    10    1
    31    29    27    1
    32     7    15    1
    33    17    19    1
    34    17    20    1
@<TRIPOS>MOLECULE
*****
 31 34 0 0 0
SMALL
GASTEIGER

@<TRIPOS>ATOM
      1 C          61.3437   88.4893   11.0205 C.3     1  UNL1        0.0527
      2 C          62.4035   89.4348   11.5030 C.ar    1  UNL1        0.0673
      3 N          62.5901   90.8537   11.0536 N.ar    1  UNL1       -0.2282
      4 C          63.7647   91.4233   11.7925 C.ar    1  UNL1        0.1664
      5 S          64.3040   90.3565   12.6985 S.2     1  UNL1       -0.0517
      6 C          63.4627   89.1275   12.5197 C.ar    1  UNL1        0.0457
      7 N          64.3050   92.8153   11.6502 N.am    1  UNL1       -0.2483
      8 C          65.5309   93.0630   10.8220 C.2     1  UNL1        0.3094
      9 O          66.2164   91.9186   10.1360 O.2     1  UNL1       -0.2522
     10 N          66.0713   94.4551   10.6797 N.am    1  UNL1       -0.2572
     11 C          65.4961   95.6921   11.3033 C.3     1  UNL1        0.0955
     12 C          66.3510   96.8560   10.8979 C.3     1  UNL1        0.0238
     13 C          67.4545   96.3383   10.0237 C.3     1  UNL1        0.0310
     14 C          67.2816   94.8544    9.8888 C.3     1  UNL1        0.1528
     15 H          63.8551   93.5664   12.1004 H       1  UNL1        0.1583
     16 C          68.1641   93.9319    9.1014 C.2     1  UNL1        0.2375
     17 N          69.1577   93.0589    9.8089 N.am    1  UNL1       -0.3275
     18 O          68.0531   93.8825    7.6063 O.2     1  UNL1       -0.2736
     19 H          69.2306   93.0913   10.7902 H       1  UNL1        0.1450
     20 H          69.7370   92.4535    9.2920 H       1  UNL1        0.1450
     21 C          63.6482   87.8207   13.2323 C.ar    1  UNL1        0.0100
     22 C          64.2329   87.7960   14.6135 C.ar    1  UNL1        0.0212
     23 C          64.4183   86.4892   15.3261 C.ar    1  UNL1        0.0985
     24 N          64.0191   85.2071   14.6576 N.ar    1  UNL1       -0.2472
     25 C          63.4345   85.2318   13.2765 C.ar    1  UNL1        0.0715
     26 C          63.2490   86.5386   12.5639 C.ar    1  UNL1        0.0163
     27 C          63.0352   83.9497   12.6080 C.3     1  UNL1        0.1144
     28 C          62.7450   82.9579   11.5208 C.3     1  UNL1        0.0212
     29 C          63.2104   84.3400   11.1703 C.3     1  UNL1        0.0212
     30 C          62.7214   83.1141   13.8135 C.1     1  UNL1        0.0768
     31 N          62.4075   82.2785   15.0189 N.1     1  UNL1       -0.1955
@<TRIPOS>BOND
     1     1     2    1
     2     2     3   ar
     3     3     4   ar
     4     4     7    1
     5     7     8   am
     6     8     9    2
     7     8    10   am
     8    10    11    1
     9    11    12    1
    10    12    13    1
    11    13    14    1
    12    14    16    1
    13    16    17   am
    14    16    18    2
    15     4     5   ar
    16     5     6   ar
    17     6    21    1
    18    21    22   ar
    19    22    23   ar
    20    23    24   ar
    21    24    25   ar
    22    25    27    1
    23    27    30    1
    24    30    31    3
    25    27    28    1
    26    28    29    1
    27    25    26   ar
    28     6     2   ar
    29    26    21   ar
    30    14    10    1
    31    29    27    1
    32     7    15    1
    33    17    19    1
    34    17    20    1
@<TRIPOS>MOLECULE
*****
 31 34 0 0 0
SMALL
GASTEIGER

@<TRIPOS>ATOM
      1 C          62.6693   90.3962   10.7924 C.3     1  UNL1        0.0527
      2 C          63.0222   89.3846   11.8421 C.ar    1  UNL1        0.0673
      3 N          62.4844   87.9875   11.9363 N.ar    1  UNL1       -0.2282
      4 C          63.1047   87.3317   13.1344 C.ar    1  UNL1        0.1664
      5 S          64.0259   88.3236   13.7806 S.2     1  UNL1       -0.0517
      6 C          63.9749   89.5923   12.9819 C.ar    1  UNL1        0.0457
      7 N          62.8488   85.9303   13.6038 N.am    1  UNL1       -0.2483
      8 C          63.1524   84.7703   12.7025 C.2     1  UNL1        0.3094
      9 O          63.7119   85.0118   11.3318 O.2     1  UNL1       -0.2522
     10 N          62.8964   83.3688   13.1719 N.am    1  UNL1       -0.2572
     11 C          62.3429   82.9741   14.5089 C.3     1  UNL1        0.0955
     12 C          62.2535   81.4773   14.5500 C.3     1  UNL1        0.0238
     13 C          62.7517   80.9470   13.2384 C.3     1  UNL1        0.0310
     14 C          63.1491   82.1160   12.3866 C.3     1  UNL1        0.1528
     15 H          62.4816   85.7718   14.5034 H       1  UNL1        0.1583
     16 C          63.7021   82.0447   10.9941 C.2     1  UNL1        0.2375
     17 N          63.0451   81.1672    9.9703 N.am    1  UNL1       -0.3275
     18 O          64.9121   82.8510   10.6254 O.2     1  UNL1       -0.2736
     19 H          62.2510   80.6380   10.2122 H       1  UNL1        0.1450
     20 H          63.4081   81.1204    9.0563 H       1  UNL1        0.1450
     21 C          64.7420   90.8483   13.2722 C.ar    1  UNL1        0.0100
     22 C          65.0142   91.2498   14.6916 C.ar    1  UNL1        0.0212
     23 C          65.7812   92.5057   14.9818 C.ar    1  UNL1        0.0985
     24 N          66.2760   93.3602   13.8526 N.ar    1  UNL1       -0.2472
     25 C          66.0038   92.9587   12.4332 C.ar    1  UNL1        0.0715
     26 C          65.2368   91.7028   12.1430 C.ar    1  UNL1        0.0163
     27 C          66.4986   93.8132   11.3041 C.3     1  UNL1        0.1144
     28 C          66.7253   95.0225   10.4461 C.3     1  UNL1        0.0212
     29 C          65.8984   95.1318   11.6928 C.3     1  UNL1        0.0212
     30 C          67.2707   92.7914   10.5231 C.1     1  UNL1        0.0768
     31 N          68.0426   91.7697    9.7421 N.1     1  UNL1       -0.1955
@<TRIPOS>BOND
     1     1     2    1
     2     2     3   ar
     3     3     4   ar
     4     4     7    1
     5     7     8   am
     6     8     9    2
     7     8    10   am
     8    10    11    1
     9    11    12    1
    10    12    13    1
    11    13    14    1
    12    14    16    1
    13    16    17   am
    14    16    18    2
    15     4     5   ar
    16     5     6   ar
    17     6    21    1
    18    21    22   ar
    19    22    23   ar
    20    23    24   ar
    21    24    25   ar
    22    25    27    1
    23    27    30    1
    24    30    31    3
    25    27    28    1
    26    28    29    1
    27    25    26   ar
    28     6     2   ar
    29    26    21   ar
    30    14    10    1
    31    29    27    1
    32     7    15    1
    33    17    19    1
    34    17    20    1
@<TRIPOS>MOLECULE
*****
 31 34 0 0 0
SMALL
GASTEIGER

@<TRIPOS>ATOM
      1 C          59.0684   88.7791   11.8795 C.3     1  UNL1        0.0527
      2 C          60.4360   89.2619   11.4966 C.ar    1  UNL1        0.0673
      3 N          61.5014   89.7327   12.4417 N.ar    1  UNL1       -0.2282
      4 C          62.7022   90.1204   11.6306 C.ar    1  UNL1        0.1664
      5 S          62.3788   89.8893   10.1843 S.2     1  UNL1       -0.0517
      6 C          60.9782   89.3587   10.1014 C.ar    1  UNL1        0.0457
      7 N          63.9986   90.6469   12.1711 N.am    1  UNL1       -0.2483
      8 C          64.0973   91.0658   13.6080 C.2     1  UNL1        0.3094
      9 O          62.8994   90.9583   14.5045 O.2     1  UNL1       -0.2522
     10 N          65.3937   91.5922   14.1484 N.am    1  UNL1       -0.2572
     11 C          66.6691   91.7562   13.3762 C.3     1  UNL1        0.0955
     12 C          67.7060   92.3124   14.3064 C.3     1  UNL1        0.0238
     13 C          67.0715   92.4922   15.6536 C.3     1  UNL1        0.0310
     14 C          65.6423   92.0471   15.5560 C.3     1  UNL1        0.1528
     15 H          64.7848   90.7174   11.5826 H       1  UNL1        0.1583
     16 C          64.6383   92.0554   16.6702 C.2     1  UNL1        0.2375
     17 N          63.7897   90.8449   16.9244 N.am    1  UNL1       -0.3275
     18 O          64.4826   93.2744   17.5305 O.2     1  UNL1       -0.2736
     19 H          63.8918   90.0449   16.3598 H       1  UNL1        0.1450
     20 H          63.1307   90.8504   17.6557 H       1  UNL1        0.1450
     21 C          60.2481   88.9897    8.8441 C.ar    1  UNL1        0.0100
     22 C          59.7569   87.5863    8.6464 C.ar    1  UNL1        0.0212
     23 C          59.0269   87.2174    7.3891 C.ar    1  UNL1        0.0985
     24 N          58.7880   88.2519    6.3295 N.ar    1  UNL1       -0.2472
     25 C          59.2791   89.6553    6.5272 C.ar    1  UNL1        0.0715
     26 C          60.0092   90.0242    7.7845 C.ar    1  UNL1        0.0163
     27 C          59.0402   90.6898    5.4676 C.3     1  UNL1        0.1144
     28 C          59.3219   91.7059    4.4007 C.3     1  UNL1        0.0212
     29 C          60.4562   90.9961    5.0786 C.3     1  UNL1        0.0212
     30 C          57.5413   90.7428    5.4885 C.1     1  UNL1        0.0768
     31 N          56.0424   90.7957    5.5093 N.1     1  UNL1       -0.1955
@<TRIPOS>BOND
     1     1     2    1
     2     2     3   ar
     3     3     4   ar
     4     4     7    1
     5     7     8   am
     6     8     9    2
     7     8    10   am
     8    10    11    1
     9    11    12    1
    10    12    13    1
    11    13    14    1
    12    14    16    1
    13    16    17   am
    14    16    18    2
    15     4     5   ar
    16     5     6   ar
    17     6    21    1
    18    21    22   ar
    19    22    23   ar
    20    23    24   ar
    21    24    25   ar
    22    25    27    1
    23    27    30    1
    24    30    31    3
    25    27    28    1
    26    28    29    1
    27    25    26   ar
    28     6     2   ar
    29    26    21   ar
    30    14    10    1
    31    29    27    1
    32     7    15    1
    33    17    19    1
    34    17    20    1
