@<TRIPOS>MOLECULE
*****
 56 60 0 0 0
SMALL
GASTEIGER

@<TRIPOS>ATOM
      1 C          63.8994   87.2915   14.0127 C.3     1  UNL1        0.0760
      2 C          62.5587   86.3075   12.0166 C.2     1  UNL1        0.2406
      3 O          61.6477   85.6015   12.9765 O.2     1  UNL1       -0.2733
      4 N          63.6846   87.1526   12.5347 N.am    1  UNL1       -0.3043
      5 H          64.2826   87.6160   11.9046 H       1  UNL1        0.1494
      6 C          62.4322   85.3325    8.2617 C.3     1  UNL1        0.0935
      7 C          62.8953   85.0801    9.6660 C.3     1  UNL1        0.0505
      8 C          62.3439   86.1686   10.5386 C.3     1  UNL1        0.1547
      9 N          61.5401   87.0936    9.6736 N.am    1  UNL1       -0.2555
     10 C          60.8100   88.3201   10.1348 C.2     1  UNL1        0.3079
     11 O          60.8460   88.7147   11.5816 O.2     1  UNL1       -0.2523
     12 N          60.0439   89.1519    9.1494 N.am    1  UNL1       -0.2566
     13 C          59.3137   90.3783    9.6106 C.3     1  UNL1        0.1168
     14 C          61.5947   86.5769    8.2664 C.3     1  UNL1        0.1149
     15 C          62.0184   83.3921    4.8247 C.3     1  UNL1        0.0946
     16 C          61.6998   84.2360    6.0232 C.2     1  UNL1        0.2230
     17 O          60.3304   84.8272    6.1816 O.2     1  UNL1       -0.2751
     18 N          62.7507   84.4887    7.0632 N.am    1  UNL1       -0.3042
     19 H          63.6495   84.1006    6.9592 H       1  UNL1        0.1494
     20 C          60.0079   88.7572    7.7026 C.3     1  UNL1        0.1413
     21 C          59.7055   89.7844    6.6522 C.ar    1  UNL1        0.0858
     22 C          58.3637   90.3956    6.3771 C.ar    1  UNL1        0.0530
     23 S          58.5207   91.3698    5.2474 S.2     1  UNL1       -0.0705
     24 C          59.9599   91.3608    4.8243 C.ar    1  UNL1        0.0875
     25 N          60.6921   90.3810    5.6925 N.ar    1  UNL1       -0.2453
     26 C          60.5610   92.1865    3.7259 C.3     1  UNL1        0.0465
     27 C          61.9907   91.9743    3.3247 C.3     1  UNL1        0.0069
     28 C          59.7326   93.2245    3.0285 C.3     1  UNL1        0.0069
     29 C          63.5629   88.5808   14.7015 C.3     1  UNL1        0.0216
     30 C          63.2842   89.8128   13.8926 C.3     1  UNL1        0.0217
     31 C          64.2039   90.9943   13.9844 C.3     1  UNL1        0.0792
     32 N          64.3902   91.8936   12.7984 N.am    1  UNL1       -0.2720
     33 C          64.0528   91.4001   11.4226 C.2     1  UNL1        0.4019
     34 O          63.5292   90.0074   11.2328 O.2     1  UNL1       -0.2264
     35 H          64.7339   92.8077   12.9230 H       1  UNL1        0.1527
     36 O          64.2391   92.2995   10.2367 O.3     1  UNL1       -0.4291
     37 C          65.0888   93.5300   10.3546 C.3     1  UNL1        0.2447
     38 C          66.5459   93.4717   10.0033 C.ar    1  UNL1        0.0714
     39 C          67.3708   94.6063    9.4720 C.ar    1  UNL1        0.1053
     40 N          68.7687   94.1045    9.2620 N.ar    1  UNL1       -0.2350
     41 C          68.8077   92.6597    9.6635 C.ar    1  UNL1        0.1343
     42 S          67.4340   92.2687   10.1216 S.2     1  UNL1       -0.0652
     43 C          64.9373   91.2763   15.2621 C.3     1  UNL1        0.0460
     44 C          66.3265   91.8408   15.2206 C.ar    1  UNL1       -0.0205
     45 C          66.7803   92.7954   16.2849 C.ar    1  UNL1       -0.0042
     46 C          68.1694   93.3598   16.2434 C.ar    1  UNL1       -0.0003
     47 C          69.1047   92.9696   15.1376 C.ar    1  UNL1       -0.0000
     48 C          68.6510   92.0149   14.0733 C.ar    1  UNL1       -0.0003
     49 C          67.2619   91.4505   14.1148 C.ar    1  UNL1       -0.0042
     50 C          64.4507   86.1412   14.8019 C.3     1  UNL1        0.0459
     51 C          64.0305   84.7385   14.4764 C.ar    1  UNL1       -0.0205
     52 C          64.7363   83.9761   13.3944 C.ar    1  UNL1       -0.0042
     53 C          64.3161   82.5735   13.0689 C.ar    1  UNL1       -0.0003
     54 C          63.1901   81.9332   13.8253 C.ar    1  UNL1       -0.0000
     55 C          62.4842   82.6956   14.9073 C.ar    1  UNL1       -0.0003
     56 C          62.9044   84.0982   15.2328 C.ar    1  UNL1       -0.0042
@<TRIPOS>BOND
     1    15    16    1
     2    16    17    2
     3    16    18   am
     4     6    18    1
     5     6     7    1
     6     7     8    1
     7     8     2    1
     8     2     3    2
     9     2     4   am
    10     4     1    1
    11     1    29    1
    12    29    30    1
    13    31    30    1
    14    31    43    1
    15    43    44    1
    16    44    45   ar
    17    45    46   ar
    18    46    47   ar
    19    47    48   ar
    20    48    49   ar
    21    31    32    1
    22    32    33   am
    23    33    34    2
    24    33    36    1
    25    36    37    1
    26    37    38    1
    27    38    39   ar
    28    39    40   ar
    29    40    41   ar
    30    41    42   ar
    31     1    50    1
    32    50    51    1
    33    51    52   ar
    34    52    53   ar
    35    53    54   ar
    36    54    55   ar
    37    55    56   ar
    38     8     9    1
    39     9    10   am
    40    10    11    2
    41    10    12   am
    42    12    13    1
    43    12    20    1
    44    20    21    1
    45    21    22   ar
    46    22    23   ar
    47    23    24   ar
    48    24    26    1
    49    26    27    1
    50    26    28    1
    51    24    25   ar
    52     9    14    1
    53    14     6    1
    54    49    44   ar
    55    42    38   ar
    56    56    51   ar
    57    25    21   ar
    58    18    19    1
    59     4     5    1
    60    32    35    1
@<TRIPOS>MOLECULE
*****
 56 60 0 0 0
SMALL
GASTEIGER

@<TRIPOS>ATOM
      1 C          62.1198   86.8252   11.6230 C.3     1  UNL1        0.0760
      2 C          63.0256   89.1841   11.0184 C.2     1  UNL1        0.2406
      3 O          62.6867   88.9447    9.5770 O.2     1  UNL1       -0.2733
      4 N          62.7421   88.1243   12.0415 N.am    1  UNL1       -0.3043
      5 H          62.9645   88.2813   12.9876 H       1  UNL1        0.1494
      6 C          64.6852   92.6761   11.3608 C.3     1  UNL1        0.0935
      7 C          64.1426   91.5604   10.5176 C.3     1  UNL1        0.0505
      8 C          63.6479   90.4831   11.4369 C.3     1  UNL1        0.1547
      9 N          63.8848   90.9331   12.8481 N.am    1  UNL1       -0.2555
     10 C          63.5409   90.1630   14.0885 C.2     1  UNL1        0.3079
     11 O          62.8991   88.8117   13.9785 O.2     1  UNL1       -0.2523
     12 N          63.8389   90.7441   15.4388 N.am    1  UNL1       -0.2566
     13 C          63.4950   89.9740   16.6793 C.3     1  UNL1        0.1168
     14 C          64.5259   92.2884   12.8010 C.3     1  UNL1        0.1149
     15 C          67.3158   95.2717    9.9144 C.3     1  UNL1        0.0946
     16 C          66.7187   93.9929   10.4224 C.2     1  UNL1        0.2230
     17 O          67.5580   92.7521   10.5001 O.2     1  UNL1       -0.2751
     18 N          65.2823   93.9549   10.8528 N.am    1  UNL1       -0.3042
     19 H          64.7314   94.7692   10.8018 H       1  UNL1        0.1494
     20 C          64.4808   92.0955   15.5487 C.3     1  UNL1        0.1413
     21 C          65.9728   92.2260   15.4671 C.ar    1  UNL1        0.0858
     22 C          66.8906   91.3598   14.6564 C.ar    1  UNL1        0.0530
     23 S          68.2941   91.8440   14.8700 S.2     1  UNL1       -0.0705
     24 C          68.2438   93.0096   15.8130 C.ar    1  UNL1        0.0875
     25 N          66.8092   93.2456   16.1820 N.ar    1  UNL1       -0.2453
     26 C          69.4212   93.8002   16.3011 C.3     1  UNL1        0.0465
     27 C          70.5687   93.1019   16.9688 C.3     1  UNL1        0.0069
     28 C          69.4515   95.2891   16.1217 C.3     1  UNL1        0.0069
     29 C          60.6409   86.7440   11.3859 C.3     1  UNL1        0.0216
     30 C          59.9234   87.8845   10.7268 C.3     1  UNL1        0.0217
     31 C          59.8482   87.9590    9.2305 C.3     1  UNL1        0.0792
     32 N          60.1126   89.2588    8.5301 N.am    1  UNL1       -0.2720
     33 C          59.4664   89.5425    7.2064 C.2     1  UNL1        0.4019
     34 O          58.5558   88.5264    6.5833 O.2     1  UNL1       -0.2264
     35 H          60.7103   89.9257    8.9391 H       1  UNL1        0.1527
     36 O          59.7308   90.8423    6.5060 O.3     1  UNL1       -0.4291
     37 C          59.2446   91.0503    5.1024 C.3     1  UNL1        0.2447
     38 C          60.1229   91.7364    4.0984 C.ar    1  UNL1        0.0714
     39 C          61.5889   91.4916    3.8962 C.ar    1  UNL1        0.1053
     40 N          62.0614   92.3916    2.7931 N.ar    1  UNL1       -0.2350
     41 C          60.8873   93.1927    2.3136 C.ar    1  UNL1        0.1343
     42 S          59.6893   92.7878    3.1203 S.2     1  UNL1       -0.0652
     43 C          59.5086   86.7337    8.4347 C.3     1  UNL1        0.0460
     44 C          60.6002   85.9317    7.7900 C.ar    1  UNL1       -0.0205
     45 C          61.9830   85.9439    8.3710 C.ar    1  UNL1       -0.0042
     46 C          63.0744   85.1420    7.7264 C.ar    1  UNL1       -0.0003
     47 C          62.7830   84.3278    6.5007 C.ar    1  UNL1       -0.0000
     48 C          61.4002   84.3156    5.9197 C.ar    1  UNL1       -0.0003
     49 C          60.3087   85.1176    6.5644 C.ar    1  UNL1       -0.0042
     50 C          62.9765   85.6073   11.4416 C.3     1  UNL1        0.0459
     51 C          62.7535   84.3986   12.3015 C.ar    1  UNL1       -0.0205
     52 C          62.6764   83.0373   11.6764 C.ar    1  UNL1       -0.0042
     53 C          62.4534   81.8287   12.5364 C.ar    1  UNL1       -0.0003
     54 C          62.3075   81.9814   14.0214 C.ar    1  UNL1       -0.0000
     55 C          62.3845   83.3428   14.6466 C.ar    1  UNL1       -0.0003
     56 C          62.6075   84.5514   13.7866 C.ar    1  UNL1       -0.0042
@<TRIPOS>BOND
     1    15    16    1
     2    16    17    2
     3    16    18   am
     4     6    18    1
     5     6     7    1
     6     7     8    1
     7     8     2    1
     8     2     3    2
     9     2     4   am
    10     4     1    1
    11     1    29    1
    12    29    30    1
    13    31    30    1
    14    31    43    1
    15    43    44    1
    16    44    45   ar
    17    45    46   ar
    18    46    47   ar
    19    47    48   ar
    20    48    49   ar
    21    31    32    1
    22    32    33   am
    23    33    34    2
    24    33    36    1
    25    36    37    1
    26    37    38    1
    27    38    39   ar
    28    39    40   ar
    29    40    41   ar
    30    41    42   ar
    31     1    50    1
    32    50    51    1
    33    51    52   ar
    34    52    53   ar
    35    53    54   ar
    36    54    55   ar
    37    55    56   ar
    38     8     9    1
    39     9    10   am
    40    10    11    2
    41    10    12   am
    42    12    13    1
    43    12    20    1
    44    20    21    1
    45    21    22   ar
    46    22    23   ar
    47    23    24   ar
    48    24    26    1
    49    26    27    1
    50    26    28    1
    51    24    25   ar
    52     9    14    1
    53    14     6    1
    54    49    44   ar
    55    42    38   ar
    56    56    51   ar
    57    25    21   ar
    58    18    19    1
    59     4     5    1
    60    32    35    1
@<TRIPOS>MOLECULE
*****
 56 60 0 0 0
SMALL
GASTEIGER

@<TRIPOS>ATOM
      1 C          63.9025   85.6544   13.9433 C.3     1  UNL1        0.0760
      2 C          62.4155   85.9468   11.8330 C.2     1  UNL1        0.2406
      3 O          61.2637   86.3577   12.7015 O.2     1  UNL1       -0.2733
      4 N          63.7350   85.5952   12.4539 N.am    1  UNL1       -0.3043
      5 H          64.4910   85.3255   11.8838 H       1  UNL1        0.1494
      6 C          62.4074   85.1737    8.0293 C.3     1  UNL1        0.0935
      7 C          62.8247   84.8450    9.4322 C.3     1  UNL1        0.0505
      8 C          62.2480   85.8876   10.3436 C.3     1  UNL1        0.1547
      9 N          61.4744   86.8606    9.5040 N.am    1  UNL1       -0.2555
     10 C          60.7324   88.0635   10.0064 C.2     1  UNL1        0.3079
     11 O          60.7228   88.3804   11.4726 O.2     1  UNL1       -0.2523
     12 N          60.0002   88.9496    9.0428 N.am    1  UNL1       -0.2566
     13 C          59.2582   90.1526    9.5452 C.3     1  UNL1        0.1168
     14 C          61.5729   86.4194    8.0737 C.3     1  UNL1        0.1149
     15 C          62.0640   83.3056    4.5448 C.3     1  UNL1        0.0946
     16 C          61.7090   84.0856    5.7759 C.2     1  UNL1        0.2230
     17 O          60.3006   84.5577    5.9845 O.2     1  UNL1       -0.2751
     18 N          62.7624   84.3936    6.7983 N.am    1  UNL1       -0.3042
     19 H          63.6868   84.0838    6.6614 H       1  UNL1        0.1494
     20 C          60.0098   88.6327    7.5766 C.3     1  UNL1        0.1413
     21 C          59.7151   89.7093    6.5746 C.ar    1  UNL1        0.0858
     22 C          58.3818   90.3556    6.3413 C.ar    1  UNL1        0.0530
     23 S          58.5446   91.3744    5.2525 S.2     1  UNL1       -0.0705
     24 C          59.9786   91.3577    4.8128 C.ar    1  UNL1        0.0875
     25 N          60.7020   90.3287    5.6299 N.ar    1  UNL1       -0.2453
     26 C          60.5830   92.2189    3.7438 C.3     1  UNL1        0.0465
     27 C          59.7772   93.3222    3.1246 C.3     1  UNL1        0.0069
     28 C          61.9934   91.9770    3.2938 C.3     1  UNL1        0.0069
     29 C          64.6602   86.7880   14.5684 C.3     1  UNL1        0.0216
     30 C          63.9199   87.9663   15.1283 C.3     1  UNL1        0.0217
     31 C          63.9915   89.2951   14.4359 C.3     1  UNL1        0.0792
     32 N          64.8750   90.3780   14.9806 N.am    1  UNL1       -0.2720
     33 C          64.4162   91.2059   16.1443 C.2     1  UNL1        0.4019
     34 O          63.0739   90.9508   16.7633 O.2     1  UNL1       -0.2264
     35 H          65.7560   90.5454   14.5743 H       1  UNL1        0.1527
     36 O          65.2998   92.2888   16.6890 O.3     1  UNL1       -0.4291
     37 C          65.9699   93.2513   15.7538 C.3     1  UNL1        0.2447
     38 C          67.3694   92.9880   15.2827 C.ar    1  UNL1        0.0714
     39 C          67.7554   92.2630   14.0275 C.ar    1  UNL1        0.1053
     40 N          69.2532   92.2304   13.9530 N.ar    1  UNL1       -0.2350
     41 C          69.7929   92.9352   15.1622 C.ar    1  UNL1        0.1343
     42 S          68.6286   93.4034   15.9839 S.2     1  UNL1       -0.0652
     43 C          63.1795   89.5409   13.1989 C.3     1  UNL1        0.0460
     44 C          63.6253   90.5683   12.2010 C.ar    1  UNL1       -0.0205
     45 C          64.7109   91.5396   12.5586 C.ar    1  UNL1       -0.0042
     46 C          65.1566   92.5670   11.5607 C.ar    1  UNL1       -0.0003
     47 C          64.5167   92.6231   10.2052 C.ar    1  UNL1       -0.0000
     48 C          63.4311   91.6518    9.8476 C.ar    1  UNL1       -0.0003
     49 C          62.9854   90.6244   10.8455 C.ar    1  UNL1       -0.0042
     50 C          63.3123   84.5798   14.8077 C.3     1  UNL1        0.0459
     51 C          63.0406   83.2207   14.2342 C.ar    1  UNL1       -0.0205
     52 C          64.0248   82.5940   13.2915 C.ar    1  UNL1       -0.0042
     53 C          63.7532   81.2349   12.7180 C.ar    1  UNL1       -0.0003
     54 C          62.4973   80.5024   13.0871 C.ar    1  UNL1       -0.0000
     55 C          61.5131   81.1290   14.0298 C.ar    1  UNL1       -0.0003
     56 C          61.7847   82.4882   14.6034 C.ar    1  UNL1       -0.0042
@<TRIPOS>BOND
     1    15    16    1
     2    16    17    2
     3    16    18   am
     4     6    18    1
     5     6     7    1
     6     7     8    1
     7     8     2    1
     8     2     3    2
     9     2     4   am
    10     4     1    1
    11     1    29    1
    12    29    30    1
    13    31    30    1
    14    31    43    1
    15    43    44    1
    16    44    45   ar
    17    45    46   ar
    18    46    47   ar
    19    47    48   ar
    20    48    49   ar
    21    31    32    1
    22    32    33   am
    23    33    34    2
    24    33    36    1
    25    36    37    1
    26    37    38    1
    27    38    39   ar
    28    39    40   ar
    29    40    41   ar
    30    41    42   ar
    31     1    50    1
    32    50    51    1
    33    51    52   ar
    34    52    53   ar
    35    53    54   ar
    36    54    55   ar
    37    55    56   ar
    38     8     9    1
    39     9    10   am
    40    10    11    2
    41    10    12   am
    42    12    13    1
    43    12    20    1
    44    20    21    1
    45    21    22   ar
    46    22    23   ar
    47    23    24   ar
    48    24    26    1
    49    26    27    1
    50    26    28    1
    51    24    25   ar
    52     9    14    1
    53    14     6    1
    54    49    44   ar
    55    42    38   ar
    56    56    51   ar
    57    25    21   ar
    58    18    19    1
    59     4     5    1
    60    32    35    1
@<TRIPOS>MOLECULE
*****
 56 60 0 0 0
SMALL
GASTEIGER

@<TRIPOS>ATOM
      1 C          62.2447   90.2201   10.0769 C.3     1  UNL1        0.0760
      2 C          61.8479   87.9237   11.2255 C.2     1  UNL1        0.2406
      3 O          60.5988   88.4576   11.8615 O.2     1  UNL1       -0.2733
      4 N          62.6709   88.8049   10.3332 N.am    1  UNL1       -0.3043
      5 H          63.4908   88.4545    9.9157 H       1  UNL1        0.1494
      6 C          62.4876   84.0964   11.3177 C.3     1  UNL1        0.0935
      7 C          61.8087   85.2974   10.7288 C.3     1  UNL1        0.0505
      8 C          62.2741   86.5085   11.4818 C.3     1  UNL1        0.1547
      9 N          63.2406   86.0559   12.5359 N.am    1  UNL1       -0.2555
     10 C          63.9504   86.9390   13.5189 C.2     1  UNL1        0.3079
     11 O          63.7174   88.4207   13.5004 O.2     1  UNL1       -0.2523
     12 N          64.8932   86.3405   14.5203 N.am    1  UNL1       -0.2566
     13 C          65.6031   87.2236   15.5032 C.3     1  UNL1        0.1168
     14 C          63.3725   84.5651   12.4345 C.3     1  UNL1        0.1149
     15 C          63.3276   80.4549    9.9822 C.3     1  UNL1        0.0946
     16 C          63.5029   81.8753   10.4313 C.2     1  UNL1        0.2230
     17 O          64.8689   82.4950   10.4432 O.2     1  UNL1       -0.2751
     18 N          62.3123   82.6760   10.8686 N.am    1  UNL1       -0.3042
     19 H          61.4158   82.2693   10.8608 H       1  UNL1        0.1494
     20 C          65.1261   84.8587   14.5387 C.3     1  UNL1        0.1413
     21 C          63.9688   83.9196   14.7078 C.ar    1  UNL1        0.0858
     22 C          62.7952   84.1219   15.6197 C.ar    1  UNL1        0.0530
     23 S          61.8828   82.9406   15.4702 S.2     1  UNL1       -0.0705
     24 C          62.4927   82.0082   14.4658 C.ar    1  UNL1        0.0875
     25 N          63.7818   82.6133   13.9946 N.ar    1  UNL1       -0.2453
     26 C          61.9148   80.7005   14.0122 C.3     1  UNL1        0.0465
     27 C          62.8146   79.6329   13.4639 C.3     1  UNL1        0.0069
     28 C          60.4372   80.4603   14.1069 C.3     1  UNL1        0.0069
     29 C          63.2265   91.3414   10.2462 C.3     1  UNL1        0.0216
     30 C          64.0555   91.4305   11.4931 C.3     1  UNL1        0.0217
     31 C          65.2749   92.3036   11.5223 C.3     1  UNL1        0.0792
     32 N          65.7562   92.8765   12.8223 N.am    1  UNL1       -0.2720
     33 C          67.2022   92.7597   13.2038 C.2     1  UNL1        0.4019
     34 O          68.1669   92.0701   12.2852 O.2     1  UNL1       -0.2264
     35 H          65.1230   93.3291   13.4252 H       1  UNL1        0.1527
     36 O          67.6835   93.3326   14.5038 O.3     1  UNL1       -0.4291
     37 C          67.2396   92.7249   15.8013 C.3     1  UNL1        0.2447
     38 C          65.8477   92.1829   15.9383 C.ar    1  UNL1        0.0714
     39 C          64.7903   92.6942   16.8713 C.ar    1  UNL1        0.1053
     40 N          63.5578   91.8618   16.6760 N.ar    1  UNL1       -0.2350
     41 C          63.8536   90.8360   15.6223 C.ar    1  UNL1        0.1343
     42 S          65.2688   91.0344   15.1664 S.2     1  UNL1       -0.0652
     43 C          66.0129   92.6038   10.2514 C.3     1  UNL1        0.0460
     44 C          66.3590   94.0209    9.9019 C.ar    1  UNL1       -0.0205
     45 C          65.5738   95.1529   10.4951 C.ar    1  UNL1       -0.0042
     46 C          65.9199   96.5699   10.1455 C.ar    1  UNL1       -0.0003
     47 C          67.0512   96.8549    9.2028 C.ar    1  UNL1       -0.0000
     48 C          67.8365   95.7230    8.6096 C.ar    1  UNL1       -0.0003
     49 C          67.4904   94.3059    8.9591 C.ar    1  UNL1       -0.0042
     50 C          60.8366   90.5139    9.6513 C.3     1  UNL1        0.0459
     51 C          60.1528   89.6240    8.6560 C.ar    1  UNL1       -0.0205
     52 C          59.8434   90.1361    7.2805 C.ar    1  UNL1       -0.0042
     53 C          59.1596   89.2463    6.2852 C.ar    1  UNL1       -0.0003
     54 C          58.7852   87.8444    6.6654 C.ar    1  UNL1       -0.0000
     55 C          59.0946   87.3323    8.0410 C.ar    1  UNL1       -0.0003
     56 C          59.7784   88.2221    9.0363 C.ar    1  UNL1       -0.0042
@<TRIPOS>BOND
     1    15    16    1
     2    16    17    2
     3    16    18   am
     4     6    18    1
     5     6     7    1
     6     7     8    1
     7     8     2    1
     8     2     3    2
     9     2     4   am
    10     4     1    1
    11     1    29    1
    12    29    30    1
    13    31    30    1
    14    31    43    1
    15    43    44    1
    16    44    45   ar
    17    45    46   ar
    18    46    47   ar
    19    47    48   ar
    20    48    49   ar
    21    31    32    1
    22    32    33   am
    23    33    34    2
    24    33    36    1
    25    36    37    1
    26    37    38    1
    27    38    39   ar
    28    39    40   ar
    29    40    41   ar
    30    41    42   ar
    31     1    50    1
    32    50    51    1
    33    51    52   ar
    34    52    53   ar
    35    53    54   ar
    36    54    55   ar
    37    55    56   ar
    38     8     9    1
    39     9    10   am
    40    10    11    2
    41    10    12   am
    42    12    13    1
    43    12    20    1
    44    20    21    1
    45    21    22   ar
    46    22    23   ar
    47    23    24   ar
    48    24    26    1
    49    26    27    1
    50    26    28    1
    51    24    25   ar
    52     9    14    1
    53    14     6    1
    54    49    44   ar
    55    42    38   ar
    56    56    51   ar
    57    25    21   ar
    58    18    19    1
    59     4     5    1
    60    32    35    1
@<TRIPOS>MOLECULE
*****
 56 60 0 0 0
SMALL
GASTEIGER

@<TRIPOS>ATOM
      1 C          61.4317   90.0551   11.5141 C.3     1  UNL1        0.0760
      2 C          62.3724   87.7082   10.9164 C.2     1  UNL1        0.2406
      3 O          62.8150   88.2259    9.5800 O.2     1  UNL1       -0.2733
      4 N          61.6807   88.6228   11.8835 N.am    1  UNL1       -0.3043
      5 H          61.3902   88.2830   12.7606 H       1  UNL1        0.1494
      6 C          62.6087   83.8490   11.2575 C.3     1  UNL1        0.0935
      7 C          62.1272   85.0735   10.5372 C.3     1  UNL1        0.0505
      8 C          62.6214   86.2759   11.2858 C.3     1  UNL1        0.1547
      9 N          63.4083   85.7944   12.4686 N.am    1  UNL1       -0.2555
     10 C          64.0844   86.6606   13.4896 C.2     1  UNL1        0.3079
     11 O          64.0054   88.1543   13.3763 O.2     1  UNL1       -0.2523
     12 N          64.8394   86.0334   14.6237 N.am    1  UNL1       -0.2566
     13 C          65.5155   86.8997   15.6448 C.3     1  UNL1        0.1168
     14 C          63.4005   84.2945   12.4511 C.3     1  UNL1        0.1149
     15 C          63.2018   80.1529    9.9395 C.3     1  UNL1        0.0946
     16 C          63.4658   81.5735   10.3423 C.2     1  UNL1        0.2230
     17 O          64.8507   82.1393   10.2326 O.2     1  UNL1       -0.2751
     18 N          62.3448   82.4284   10.8547 N.am    1  UNL1       -0.3042
     19 H          61.4358   82.0571   10.9267 H       1  UNL1        0.1494
     20 C          64.9184   84.5397   14.7369 C.3     1  UNL1        0.1413
     21 C          63.6608   83.7231   14.7781 C.ar    1  UNL1        0.0858
     22 C          62.3793   84.1112   15.4540 C.ar    1  UNL1        0.0530
     23 S          61.3903   83.0031   15.2443 S.2     1  UNL1       -0.0705
     24 C          62.0608   81.9299   14.4387 C.ar    1  UNL1        0.0875
     25 N          63.4639   82.3749   14.1505 N.ar    1  UNL1       -0.2453
     26 C          61.4374   80.6386   13.9985 C.3     1  UNL1        0.0465
     27 C          59.9617   80.4244   14.1611 C.3     1  UNL1        0.0069
     28 C          62.2896   79.5614   13.3957 C.3     1  UNL1        0.0069
     29 C          62.2721   91.1419   12.1161 C.3     1  UNL1        0.0216
     30 C          63.5190   91.5990   11.4187 C.3     1  UNL1        0.0217
     31 C          64.7127   92.0267   12.2201 C.3     1  UNL1        0.0792
     32 N          65.4096   93.3154   11.8982 N.am    1  UNL1       -0.2720
     33 C          66.6282   93.3109   11.0235 C.2     1  UNL1        0.4019
     34 O          67.1499   92.0178   10.4707 O.2     1  UNL1       -0.2264
     35 H          65.0672   94.1641   12.2610 H       1  UNL1        0.1527
     36 O          67.3251   94.5996   10.7016 O.3     1  UNL1       -0.4291
     37 C          66.5234   95.8235   10.3710 C.3     1  UNL1        0.2447
     38 C          66.0898   96.0769    8.9575 C.ar    1  UNL1        0.0714
     39 C          66.7898   95.5964    7.7210 C.ar    1  UNL1        0.1053
     40 N          66.0128   96.0778    6.5317 N.ar    1  UNL1       -0.2350
     41 C          64.8325   96.8559    7.0332 C.ar    1  UNL1        0.1343
     42 S          64.8802   96.8554    8.5324 S.2     1  UNL1       -0.0652
     43 C          65.2095   91.1656   13.3434 C.3     1  UNL1        0.0460
     44 C          66.2774   91.6768   14.2645 C.ar    1  UNL1       -0.0205
     45 C          67.7141   91.6514   13.8343 C.ar    1  UNL1       -0.0042
     46 C          68.7819   92.1626   14.7554 C.ar    1  UNL1       -0.0003
     47 C          68.4130   92.6992   16.1067 C.ar    1  UNL1       -0.0000
     48 C          66.9763   92.7246   16.5369 C.ar    1  UNL1       -0.0003
     49 C          65.9085   92.2134   15.6158 C.ar    1  UNL1       -0.0042
     50 C          60.3421   90.4006   10.5426 C.3     1  UNL1        0.0459
     51 C          59.9383   89.4146    9.4869 C.ar    1  UNL1       -0.0205
     52 C          59.5778   88.0101    9.8709 C.ar    1  UNL1       -0.0042
     53 C          59.1739   87.0241    8.8151 C.ar    1  UNL1       -0.0003
     54 C          59.1305   87.4425    7.3753 C.ar    1  UNL1       -0.0000
     55 C          59.4910   88.8471    6.9913 C.ar    1  UNL1       -0.0003
     56 C          59.8949   89.8331    8.0470 C.ar    1  UNL1       -0.0042
@<TRIPOS>BOND
     1    15    16    1
     2    16    17    2
     3    16    18   am
     4     6    18    1
     5     6     7    1
     6     7     8    1
     7     8     2    1
     8     2     3    2
     9     2     4   am
    10     4     1    1
    11     1    29    1
    12    29    30    1
    13    31    30    1
    14    31    43    1
    15    43    44    1
    16    44    45   ar
    17    45    46   ar
    18    46    47   ar
    19    47    48   ar
    20    48    49   ar
    21    31    32    1
    22    32    33   am
    23    33    34    2
    24    33    36    1
    25    36    37    1
    26    37    38    1
    27    38    39   ar
    28    39    40   ar
    29    40    41   ar
    30    41    42   ar
    31     1    50    1
    32    50    51    1
    33    51    52   ar
    34    52    53   ar
    35    53    54   ar
    36    54    55   ar
    37    55    56   ar
    38     8     9    1
    39     9    10   am
    40    10    11    2
    41    10    12   am
    42    12    13    1
    43    12    20    1
    44    20    21    1
    45    21    22   ar
    46    22    23   ar
    47    23    24   ar
    48    24    26    1
    49    26    27    1
    50    26    28    1
    51    24    25   ar
    52     9    14    1
    53    14     6    1
    54    49    44   ar
    55    42    38   ar
    56    56    51   ar
    57    25    21   ar
    58    18    19    1
    59     4     5    1
    60    32    35    1
@<TRIPOS>MOLECULE
*****
 56 60 0 0 0
SMALL
GASTEIGER

@<TRIPOS>ATOM
      1 C          62.5809   86.1803   12.3343 C.3     1  UNL1        0.0760
      2 C          62.6290   88.7346   11.8616 C.2     1  UNL1        0.2406
      3 O          61.2066   88.6740   11.3894 O.2     1  UNL1       -0.2733
      4 N          63.3162   87.4877   12.3341 N.am    1  UNL1       -0.3043
      5 H          64.2498   87.5274   12.6440 H       1  UNL1        0.1494
      6 C          64.4933   92.0552   11.1111 C.3     1  UNL1        0.0935
      7 C          63.7924   90.8126   10.6477 C.3     1  UNL1        0.0505
      8 C          63.3643   90.0420   11.8614 C.3     1  UNL1        0.1547
      9 N          63.8006   90.8083   13.0748 N.am    1  UNL1       -0.2555
     10 C          63.5783   90.4018   14.5015 C.2     1  UNL1        0.3079
     11 O          62.8600   89.1224   14.8135 O.2     1  UNL1       -0.2523
     12 N          64.0740   91.2746   15.6160 N.am    1  UNL1       -0.2566
     13 C          63.8516   90.8681   17.0427 C.3     1  UNL1        0.1168
     14 C          64.4984   92.0526   12.6111 C.3     1  UNL1        0.1149
     15 C          67.1456   94.4714    9.4150 C.3     1  UNL1        0.0946
     16 C          66.5538   93.4121   10.2969 C.2     1  UNL1        0.2230
     17 O          67.4305   92.6506   11.2463 O.2     1  UNL1       -0.2751
     18 N          65.0852   93.1145   10.2293 N.am    1  UNL1       -0.3042
     19 H          64.5098   93.6143    9.6061 H       1  UNL1        0.1494
     20 C          64.7922   92.5541   15.3039 C.3     1  UNL1        0.1413
     21 C          66.2918   92.5872   15.2856 C.ar    1  UNL1        0.0858
     22 C          67.1847   91.6626   14.5126 C.ar    1  UNL1        0.0530
     23 S          68.6065   92.0546   14.7863 S.2     1  UNL1       -0.0705
     24 C          68.5922   93.2218   15.7285 C.ar    1  UNL1        0.0875
     25 N          67.1617   93.5509   16.0371 N.ar    1  UNL1       -0.2453
     26 C          69.7969   93.9345   16.2674 C.3     1  UNL1        0.0465
     27 C          69.9980   95.3924   15.9773 C.3     1  UNL1        0.0069
     28 C          70.8007   93.1895   17.0966 C.3     1  UNL1        0.0069
     29 C          61.2620   86.0614   11.6297 C.3     1  UNL1        0.0216
     30 C          61.1928   85.4355   10.2683 C.3     1  UNL1        0.0217
     31 C          61.7606   86.1564    9.0817 C.3     1  UNL1        0.0792
     32 N          61.3037   87.5486    8.7608 N.am    1  UNL1       -0.2720
     33 C          59.9569   87.7714    8.1390 C.2     1  UNL1        0.4019
     34 O          59.0670   86.6020    7.8382 O.2     1  UNL1       -0.2264
     35 H          61.8878   88.3162    8.9582 H       1  UNL1        0.1527
     36 O          59.5000   89.1636    7.8181 O.3     1  UNL1       -0.4291
     37 C          58.5925   89.4042    6.6483 C.3     1  UNL1        0.2447
     38 C          58.8860   90.5186    5.6881 C.ar    1  UNL1        0.0714
     39 C          57.8754   91.4379    5.0687 C.ar    1  UNL1        0.1053
     40 N          58.6064   92.3968    4.1765 N.ar    1  UNL1       -0.2350
     41 C          60.0689   92.0702    4.2445 C.ar    1  UNL1        0.1343
     42 S          60.2416   90.9095    5.1787 S.2     1  UNL1       -0.0652
     43 C          62.7852   85.4851    8.2160 C.3     1  UNL1        0.0460
     44 C          62.3901   84.9289    6.8800 C.ar    1  UNL1       -0.0205
     45 C          61.0214   84.3472    6.6849 C.ar    1  UNL1       -0.0042
     46 C          60.6264   83.7911    5.3490 C.ar    1  UNL1       -0.0003
     47 C          61.6001   83.8167    4.2083 C.ar    1  UNL1       -0.0000
     48 C          62.9688   84.3985    4.4034 C.ar    1  UNL1       -0.0003
     49 C          63.3638   84.9546    5.7393 C.ar    1  UNL1       -0.0042
     50 C          63.1645   84.9917   13.0392 C.3     1  UNL1        0.0459
     51 C          63.1909   83.6549   12.3592 C.ar    1  UNL1       -0.0205
     52 C          62.4997   82.4807   12.9863 C.ar    1  UNL1       -0.0042
     53 C          62.5261   81.1439   12.3063 C.ar    1  UNL1       -0.0003
     54 C          63.2438   80.9814   10.9992 C.ar    1  UNL1       -0.0000
     55 C          63.9350   82.1557   10.3720 C.ar    1  UNL1       -0.0003
     56 C          63.9086   83.4925   11.0520 C.ar    1  UNL1       -0.0042
@<TRIPOS>BOND
     1    15    16    1
     2    16    17    2
     3    16    18   am
     4     6    18    1
     5     6     7    1
     6     7     8    1
     7     8     2    1
     8     2     3    2
     9     2     4   am
    10     4     1    1
    11     1    29    1
    12    29    30    1
    13    31    30    1
    14    31    43    1
    15    43    44    1
    16    44    45   ar
    17    45    46   ar
    18    46    47   ar
    19    47    48   ar
    20    48    49   ar
    21    31    32    1
    22    32    33   am
    23    33    34    2
    24    33    36    1
    25    36    37    1
    26    37    38    1
    27    38    39   ar
    28    39    40   ar
    29    40    41   ar
    30    41    42   ar
    31     1    50    1
    32    50    51    1
    33    51    52   ar
    34    52    53   ar
    35    53    54   ar
    36    54    55   ar
    37    55    56   ar
    38     8     9    1
    39     9    10   am
    40    10    11    2
    41    10    12   am
    42    12    13    1
    43    12    20    1
    44    20    21    1
    45    21    22   ar
    46    22    23   ar
    47    23    24   ar
    48    24    26    1
    49    26    27    1
    50    26    28    1
    51    24    25   ar
    52     9    14    1
    53    14     6    1
    54    49    44   ar
    55    42    38   ar
    56    56    51   ar
    57    25    21   ar
    58    18    19    1
    59     4     5    1
    60    32    35    1
@<TRIPOS>MOLECULE
*****
 56 60 0 0 0
SMALL
GASTEIGER

@<TRIPOS>ATOM
      1 C          61.3044   89.9153   11.2708 C.3     1  UNL1        0.0760
      2 C          62.2923   87.5645   10.7729 C.2     1  UNL1        0.2406
      3 O          62.7219   88.0327    9.4142 O.2     1  UNL1       -0.2733
      4 N          61.5836   88.5057   11.7013 N.am    1  UNL1       -0.3043
      5 H          61.3016   88.1984   12.5930 H       1  UNL1        0.1494
      6 C          62.6100   83.7293   11.2794 C.3     1  UNL1        0.0935
      7 C          62.1029   84.9113   10.5075 C.3     1  UNL1        0.0505
      8 C          62.5714   86.1549   11.2034 C.3     1  UNL1        0.1547
      9 N          63.3680   85.7414   12.4052 N.am    1  UNL1       -0.2555
     10 C          64.0254   86.6649   13.3877 C.2     1  UNL1        0.3079
     11 O          63.9149   88.1503   13.2104 O.2     1  UNL1       -0.2523
     12 N          64.7932   86.1030   14.5472 N.am    1  UNL1       -0.2566
     13 C          65.4505   87.0264   15.5297 C.3     1  UNL1        0.1168
     14 C          63.3919   84.2423   12.4522 C.3     1  UNL1        0.1149
     15 C          63.2319   80.0415    9.9518 C.3     1  UNL1        0.0946
     16 C          63.4657   81.4833   10.2929 C.2     1  UNL1        0.2230
     17 O          64.7889   82.1210    9.9887 O.2     1  UNL1       -0.2751
     18 N          62.3762   82.2875   10.9383 N.am    1  UNL1       -0.3042
     19 H          61.5078   81.8689   11.1379 H       1  UNL1        0.1494
     20 C          64.9036   84.6175   14.7245 C.3     1  UNL1        0.1413
     21 C          63.6641   83.7746   14.7796 C.ar    1  UNL1        0.0858
     22 C          62.3806   84.1378   15.4653 C.ar    1  UNL1        0.0530
     23 S          61.4137   83.0081   15.2682 S.2     1  UNL1       -0.0705
     24 C          62.0998   81.9465   14.4605 C.ar    1  UNL1        0.0875
     25 N          63.4906   82.4202   14.1585 N.ar    1  UNL1       -0.2453
     26 C          61.5003   80.6406   14.0303 C.3     1  UNL1        0.0465
     27 C          60.0275   80.4035   14.1876 C.3     1  UNL1        0.0069
     28 C          62.3735   79.5717   13.4430 C.3     1  UNL1        0.0069
     29 C          62.2296   91.0221   11.6818 C.3     1  UNL1        0.0216
     30 C          63.7142   90.8118   11.6435 C.3     1  UNL1        0.0217
     31 C          64.6401   91.9289   12.0241 C.3     1  UNL1        0.0792
     32 N          65.3436   91.9016   13.3486 N.am    1  UNL1       -0.2720
     33 C          64.6084   91.4602   14.5794 C.2     1  UNL1        0.4019
     34 O          63.1698   91.0462   14.4856 O.2     1  UNL1       -0.2264
     35 H          66.2879   92.1734   13.4102 H       1  UNL1        0.1527
     36 O          65.3119   91.4329   15.9039 O.3     1  UNL1       -0.4291
     37 C          66.1343   92.6089   16.3407 C.3     1  UNL1        0.2447
     38 C          67.5122   92.8092   15.7828 C.ar    1  UNL1        0.0714
     39 C          68.1599   91.9795   14.7142 C.ar    1  UNL1        0.1053
     40 N          69.5324   92.5319   14.4665 N.ar    1  UNL1       -0.2350
     41 C          69.7328   93.7030   15.3821 C.ar    1  UNL1        0.1343
     42 S          68.4843   93.8744   16.1956 S.2     1  UNL1       -0.0652
     43 C          64.8624   93.0733   11.0802 C.3     1  UNL1        0.0460
     44 C          66.1710   93.2076   10.3593 C.ar    1  UNL1       -0.0205
     45 C          67.1552   92.0757   10.3744 C.ar    1  UNL1       -0.0042
     46 C          68.4637   92.2100    9.6535 C.ar    1  UNL1       -0.0003
     47 C          68.7880   93.4762    8.9176 C.ar    1  UNL1       -0.0000
     48 C          67.8039   94.6080    8.9025 C.ar    1  UNL1       -0.0003
     49 C          66.4954   94.4737    9.6234 C.ar    1  UNL1       -0.0042
     50 C          60.1001   90.2179   10.4293 C.3     1  UNL1        0.0459
     51 C          59.7486   89.3268    9.2750 C.ar    1  UNL1       -0.0205
     52 C          59.3874   87.8915    9.5184 C.ar    1  UNL1       -0.0042
     53 C          59.0359   87.0004    8.3642 C.ar    1  UNL1       -0.0003
     54 C          59.0456   87.5446    6.9664 C.ar    1  UNL1       -0.0000
     55 C          59.4068   88.9800    6.7229 C.ar    1  UNL1       -0.0003
     56 C          59.7583   89.8711    7.8772 C.ar    1  UNL1       -0.0042
@<TRIPOS>BOND
     1    15    16    1
     2    16    17    2
     3    16    18   am
     4     6    18    1
     5     6     7    1
     6     7     8    1
     7     8     2    1
     8     2     3    2
     9     2     4   am
    10     4     1    1
    11     1    29    1
    12    29    30    1
    13    31    30    1
    14    31    43    1
    15    43    44    1
    16    44    45   ar
    17    45    46   ar
    18    46    47   ar
    19    47    48   ar
    20    48    49   ar
    21    31    32    1
    22    32    33   am
    23    33    34    2
    24    33    36    1
    25    36    37    1
    26    37    38    1
    27    38    39   ar
    28    39    40   ar
    29    40    41   ar
    30    41    42   ar
    31     1    50    1
    32    50    51    1
    33    51    52   ar
    34    52    53   ar
    35    53    54   ar
    36    54    55   ar
    37    55    56   ar
    38     8     9    1
    39     9    10   am
    40    10    11    2
    41    10    12   am
    42    12    13    1
    43    12    20    1
    44    20    21    1
    45    21    22   ar
    46    22    23   ar
    47    23    24   ar
    48    24    26    1
    49    26    27    1
    50    26    28    1
    51    24    25   ar
    52     9    14    1
    53    14     6    1
    54    49    44   ar
    55    42    38   ar
    56    56    51   ar
    57    25    21   ar
    58    18    19    1
    59     4     5    1
    60    32    35    1
@<TRIPOS>MOLECULE
*****
 56 60 0 0 0
SMALL
GASTEIGER

@<TRIPOS>ATOM
      1 C          62.9261   84.3392   10.8852 C.3     1  UNL1        0.0760
      2 C          63.8160   85.5119   13.0259 C.2     1  UNL1        0.2406
      3 O          64.9796   84.5659   13.0605 O.2     1  UNL1       -0.2733
      4 N          62.7893   85.3986   11.9383 N.am    1  UNL1       -0.3043
      5 H          62.0256   86.0195   11.9156 H       1  UNL1        0.1494
      6 C          63.5044   87.6757   16.2332 C.3     1  UNL1        0.0935
      7 C          63.6566   86.3431   15.5615 C.3     1  UNL1        0.0505
      8 C          63.6792   86.5713   14.0790 C.3     1  UNL1        0.1547
      9 N          63.5410   88.0448   13.8347 N.am    1  UNL1       -0.2555
     10 C          63.5154   88.7176   12.4943 C.2     1  UNL1        0.3079
     11 O          63.6344   87.9000   11.2423 O.2     1  UNL1       -0.2523
     12 N          63.3707   90.2080   12.4058 N.am    1  UNL1       -0.2566
     13 C          63.3451   90.8808   11.0654 C.3     1  UNL1        0.1168
     14 C          63.4329   88.7274   15.1660 C.3     1  UNL1        0.1149
     15 C          62.5801   87.2225   20.0660 C.3     1  UNL1        0.0946
     16 C          62.6489   86.9837   18.5867 C.2     1  UNL1        0.2230
     17 O          61.9308   85.8139   17.9817 O.2     1  UNL1       -0.2751
     18 N          63.4356   87.9146   17.7125 N.am    1  UNL1       -0.3042
     19 H          63.9069   88.6823   18.1095 H       1  UNL1        0.1494
     20 C          63.2517   91.0256   13.6579 C.3     1  UNL1        0.1413
     21 C          64.4868   91.5166   14.3532 C.ar    1  UNL1        0.0858
     22 C          64.5632   92.0204   15.7639 C.ar    1  UNL1        0.0530
     23 S          65.9860   92.4052   16.0425 S.2     1  UNL1       -0.0705
     24 C          66.7890   92.1393   14.8037 C.ar    1  UNL1        0.0875
     25 N          65.8625   91.5901   13.7597 N.ar    1  UNL1       -0.2453
     26 C          68.2602   92.3802   14.6381 C.3     1  UNL1        0.0465
     27 C          69.0170   93.1457   15.6827 C.3     1  UNL1        0.0069
     28 C          68.9746   91.8557   13.4279 C.3     1  UNL1        0.0069
     29 C          62.3552   84.5641    9.5165 C.3     1  UNL1        0.0216
     30 C          62.4044   85.9300    8.8985 C.3     1  UNL1        0.0217
     31 C          61.2436   86.8670    9.0564 C.3     1  UNL1        0.0792
     32 N          60.8171   87.7328    7.9082 N.am    1  UNL1       -0.2720
     33 C          59.4137   87.6473    7.3853 C.2     1  UNL1        0.4019
     34 O          58.4370   86.6960    8.0106 O.2     1  UNL1       -0.2264
     35 H          61.4582   88.3572    7.4978 H       1  UNL1        0.1527
     36 O          58.9872   88.5131    6.2371 O.3     1  UNL1       -0.4291
     37 C          58.7898   89.9860    6.4412 C.3     1  UNL1        0.2447
     38 C          59.1885   90.9523    5.3655 C.ar    1  UNL1        0.0714
     39 C          58.2771   91.9139    4.6621 C.ar    1  UNL1        0.1053
     40 N          59.0939   92.6827    3.6661 N.ar    1  UNL1       -0.2350
     41 C          60.5101   92.1962    3.7540 C.ar    1  UNL1        0.1343
     42 S          60.5685   91.1268    4.8042 S.2     1  UNL1       -0.0652
     43 C          60.5095   86.9381   10.3625 C.3     1  UNL1        0.0460
     44 C          60.0098   88.2578   10.8712 C.ar    1  UNL1       -0.0205
     45 C          60.3365   89.5199   10.1293 C.ar    1  UNL1       -0.0042
     46 C          59.8367   90.8395   10.6379 C.ar    1  UNL1       -0.0003
     47 C          59.0102   90.8971   11.8884 C.ar    1  UNL1       -0.0000
     48 C          58.6835   89.6350   12.6302 C.ar    1  UNL1       -0.0003
     49 C          59.1833   88.3154   12.1216 C.ar    1  UNL1       -0.0042
     50 C          63.6339   83.0549   11.2008 C.3     1  UNL1        0.0459
     51 C          62.9896   82.0461   12.1048 C.ar    1  UNL1       -0.0205
     52 C          62.2826   82.4969   13.3486 C.ar    1  UNL1       -0.0042
     53 C          61.6384   81.4881   14.2525 C.ar    1  UNL1       -0.0003
     54 C          61.7010   80.0285   13.9128 C.ar    1  UNL1       -0.0000
     55 C          62.4080   79.5776   12.6690 C.ar    1  UNL1       -0.0003
     56 C          63.0523   80.5864   11.7650 C.ar    1  UNL1       -0.0042
@<TRIPOS>BOND
     1    15    16    1
     2    16    17    2
     3    16    18   am
     4     6    18    1
     5     6     7    1
     6     7     8    1
     7     8     2    1
     8     2     3    2
     9     2     4   am
    10     4     1    1
    11     1    29    1
    12    29    30    1
    13    31    30    1
    14    31    43    1
    15    43    44    1
    16    44    45   ar
    17    45    46   ar
    18    46    47   ar
    19    47    48   ar
    20    48    49   ar
    21    31    32    1
    22    32    33   am
    23    33    34    2
    24    33    36    1
    25    36    37    1
    26    37    38    1
    27    38    39   ar
    28    39    40   ar
    29    40    41   ar
    30    41    42   ar
    31     1    50    1
    32    50    51    1
    33    51    52   ar
    34    52    53   ar
    35    53    54   ar
    36    54    55   ar
    37    55    56   ar
    38     8     9    1
    39     9    10   am
    40    10    11    2
    41    10    12   am
    42    12    13    1
    43    12    20    1
    44    20    21    1
    45    21    22   ar
    46    22    23   ar
    47    23    24   ar
    48    24    26    1
    49    26    27    1
    50    26    28    1
    51    24    25   ar
    52     9    14    1
    53    14     6    1
    54    49    44   ar
    55    42    38   ar
    56    56    51   ar
    57    25    21   ar
    58    18    19    1
    59     4     5    1
    60    32    35    1
@<TRIPOS>MOLECULE
*****
 56 60 0 0 0
SMALL
GASTEIGER

@<TRIPOS>ATOM
      1 C          62.5113   89.1470   10.1448 C.3     1  UNL1        0.0760
      2 C          62.2870   86.7398   11.0962 C.2     1  UNL1        0.2406
      3 O          61.0645   87.1554   11.8595 O.2     1  UNL1       -0.2733
      4 N          63.0104   87.7356   10.2388 N.am    1  UNL1       -0.3043
      5 H          63.8128   87.4628    9.7377 H       1  UNL1        0.1494
      6 C          63.4940   83.0856   10.5906 C.3     1  UNL1        0.0935
      7 C          62.9821   84.3841   10.0412 C.3     1  UNL1        0.0505
      8 C          62.7861   85.3284   11.1901 C.3     1  UNL1        0.1547
      9 N          63.1770   84.6134   12.4495 N.am    1  UNL1       -0.2555
     10 C          63.1374   85.1843   13.8361 C.2     1  UNL1        0.3079
     11 O          62.6741   86.5944   14.0535 O.2     1  UNL1       -0.2523
     12 N          63.5608   84.3453   15.0050 N.am    1  UNL1       -0.2566
     13 C          63.5212   84.9163   16.3916 C.3     1  UNL1        0.1168
     14 C          63.6145   83.2273   12.0790 C.3     1  UNL1        0.1149
     15 C          63.4853   79.3319    9.3024 C.3     1  UNL1        0.0946
     16 C          63.1524   80.5570   10.1013 C.2     1  UNL1        0.2230
     17 O          62.1447   80.4787   11.2097 O.2     1  UNL1       -0.2751
     18 N          63.8270   81.8605    9.7917 N.am    1  UNL1       -0.3042
     19 H          64.4883   81.9119    9.0642 H       1  UNL1        0.1494
     20 C          64.0241   82.9353   14.7875 C.3     1  UNL1        0.1413
     21 C          63.0235   81.8496   14.5223 C.ar    1  UNL1        0.0858
     22 C          63.3381   80.4420   14.1108 C.ar    1  UNL1        0.0530
     23 S          62.0417   79.7034   13.9562 S.2     1  UNL1       -0.0705
     24 C          60.9258   80.6548   14.2721 C.ar    1  UNL1        0.0875
     25 N          61.5325   81.9812   14.6220 N.ar    1  UNL1       -0.2453
     26 C          59.4605   80.3356   14.2433 C.3     1  UNL1        0.0465
     27 C          58.9836   78.9655   14.6243 C.3     1  UNL1        0.0069
     28 C          58.4718   81.3866   13.8333 C.3     1  UNL1        0.0069
     29 C          63.4847   90.2882   10.1428 C.3     1  UNL1        0.0216
     30 C          63.3693   91.3741   11.1711 C.3     1  UNL1        0.0217
     31 C          64.5820   91.8141   11.9366 C.3     1  UNL1        0.0792
     32 N          64.4769   92.1080   13.4038 N.am    1  UNL1       -0.2720
     33 C          64.4001   90.9810   14.3908 C.2     1  UNL1        0.4019
     34 O          64.4285   89.5603   13.9106 O.2     1  UNL1       -0.2264
     35 H          64.4582   93.0405   13.7189 H       1  UNL1        0.1527
     36 O          64.2950   91.2749   15.8580 O.3     1  UNL1       -0.4291
     37 C          65.1507   92.3428   16.4722 C.3     1  UNL1        0.2447
     38 C          66.5052   92.6400   15.9001 C.ar    1  UNL1        0.0714
     39 C          66.7887   93.5100   14.7115 C.ar    1  UNL1        0.1053
     40 N          68.2726   93.5270   14.4930 N.ar    1  UNL1       -0.2350
     41 C          68.9062   92.6675   15.5465 C.ar    1  UNL1        0.1343
     42 S          67.8138   92.1193   16.4161 S.2     1  UNL1       -0.0652
     43 C          65.8996   91.9602   11.2350 C.3     1  UNL1        0.0460
     44 C          66.3155   93.2946   10.6903 C.ar    1  UNL1       -0.0205
     45 C          67.2844   93.3694    9.5477 C.ar    1  UNL1       -0.0042
     46 C          67.7001   94.7037    9.0031 C.ar    1  UNL1       -0.0003
     47 C          67.1470   95.9633    9.6010 C.ar    1  UNL1       -0.0000
     48 C          66.1781   95.8885   10.7436 C.ar    1  UNL1       -0.0003
     49 C          65.7623   94.5541   11.2883 C.ar    1  UNL1       -0.0042
     50 C          61.0386   89.4172   10.0527 C.3     1  UNL1        0.0459
     51 C          60.2433   88.8568    8.9111 C.ar    1  UNL1       -0.0205
     52 C          59.8799   89.7327    7.7489 C.ar    1  UNL1       -0.0042
     53 C          59.0846   89.1723    6.6072 C.ar    1  UNL1       -0.0003
     54 C          58.6525   87.7361    6.6278 C.ar    1  UNL1       -0.0000
     55 C          59.0158   86.8601    7.7900 C.ar    1  UNL1       -0.0003
     56 C          59.8112   87.4205    8.9317 C.ar    1  UNL1       -0.0042
@<TRIPOS>BOND
     1    15    16    1
     2    16    17    2
     3    16    18   am
     4     6    18    1
     5     6     7    1
     6     7     8    1
     7     8     2    1
     8     2     3    2
     9     2     4   am
    10     4     1    1
    11     1    29    1
    12    29    30    1
    13    31    30    1
    14    31    43    1
    15    43    44    1
    16    44    45   ar
    17    45    46   ar
    18    46    47   ar
    19    47    48   ar
    20    48    49   ar
    21    31    32    1
    22    32    33   am
    23    33    34    2
    24    33    36    1
    25    36    37    1
    26    37    38    1
    27    38    39   ar
    28    39    40   ar
    29    40    41   ar
    30    41    42   ar
    31     1    50    1
    32    50    51    1
    33    51    52   ar
    34    52    53   ar
    35    53    54   ar
    36    54    55   ar
    37    55    56   ar
    38     8     9    1
    39     9    10   am
    40    10    11    2
    41    10    12   am
    42    12    13    1
    43    12    20    1
    44    20    21    1
    45    21    22   ar
    46    22    23   ar
    47    23    24   ar
    48    24    26    1
    49    26    27    1
    50    26    28    1
    51    24    25   ar
    52     9    14    1
    53    14     6    1
    54    49    44   ar
    55    42    38   ar
    56    56    51   ar
    57    25    21   ar
    58    18    19    1
    59     4     5    1
    60    32    35    1
