@<TRIPOS>MOLECULE
*****
 35 39 0 0 0
SMALL
GASTEIGER

@<TRIPOS>ATOM
      1 N          64.3075   85.2381   14.9486 N.3     1  UNL1       -0.2712
      2 C          63.5773   85.4991   16.2326 C.3     1  UNL1        0.0738
      3 C          63.4234   86.9834   16.3849 C.3     1  UNL1        0.0372
      4 C          62.8771   88.0620   17.2725 C.3     1  UNL1        0.0245
      5 C          63.1744   89.3851   16.6313 C.3     1  UNL1        0.0909
      6 N          63.9046   89.1240   15.3472 N.pl3   1  UNL1       -0.3060
      7 C          64.0585   87.6397   15.1949 C.3     1  UNL1        0.0901
      8 C          64.6048   86.5611   14.3072 C.3     1  UNL1        0.0921
      9 C          64.3948   90.1646   14.3844 C.ar    1  UNL1        0.0756
     10 C          65.6933   90.8705   14.6400 C.ar    1  UNL1        0.0167
     11 C          66.1835   91.9111   13.6773 C.ar    1  UNL1        0.0053
     12 C          65.3751   92.2458   12.4589 C.ar    1  UNL1        0.0737
     13 C          64.0765   91.5399   12.2032 C.ar    1  UNL1        0.0348
     14 C          63.5863   90.4993   13.1660 C.ar    1  UNL1        0.1533
     15 F          62.2878   89.7933   12.9103 F       1  UNL1       -0.2029
     16 C          65.8653   93.2864   11.4961 C.3     1  UNL1        0.4186
     17 F          66.3555   94.3270   10.5334 F       1  UNL1       -0.1659
     18 F          65.7374   92.3043   10.3696 F       1  UNL1       -0.1659
     19 F          65.9933   94.2684   12.6227 F       1  UNL1       -0.1659
     20 C          64.6756   83.8907   14.4018 C.3     1  UNL1        0.0731
     21 C          63.6104   82.9852   13.8583 C.3     1  UNL1        0.0294
     22 C          63.5436   82.7048   12.3862 C.3     1  UNL1        0.0666
     23 S          63.7762   83.8114   11.4007 S.3     1  UNL1       -0.0756
     24 C          61.2744   86.5343   10.2206 C.ar    1  UNL1        0.2029
     25 N          61.0597   86.5670   11.7048 N.ar    1  UNL1       -0.1250
     26 N          61.9707   85.5510   12.3275 N.ar    1  UNL1       -0.1220
     27 C          62.7485   84.8903   11.2281 C.ar    1  UNL1        0.1933
     28 N          62.3182   85.4980    9.9260 N.ar    1  UNL1       -0.2860
     29 C          62.8400   85.1334    8.5678 C.3     1  UNL1        0.1341
     30 C          61.5637   89.7694    9.9047 C.3     1  UNL1        0.0556
     31 C          60.7022   88.8749    9.0634 C.ar    1  UNL1        0.1001
     32 N          59.8223   89.3104    7.9293 N.ar    1  UNL1       -0.2085
     33 C          59.1456   88.0925    7.3736 C.ar    1  UNL1        0.2849
     34 O          59.6072   86.9043    8.1642 O.2     1  UNL1       -0.4283
     35 C          60.5692   87.3879    9.2086 C.ar    1  UNL1        0.1964
@<TRIPOS>BOND
     1    30    31    1
     2    31    32   ar
     3    32    33   ar
     4    33    34   ar
     5    34    35   ar
     6    35    24    1
     7    24    25   ar
     8    25    26   ar
     9    26    27   ar
    10    27    23    1
    11    23    22    1
    12    22    21    1
    13    21    20    1
    14    20     1    1
    15     1     2    1
    16     2     3    1
    17     3     4    1
    18     4     5    1
    19     5     6    1
    20     6     9    1
    21     9    10   ar
    22    10    11   ar
    23    11    12   ar
    24    12    16    1
    25    16    17    1
    26    16    18    1
    27    16    19    1
    28    12    13   ar
    29    13    14   ar
    30    14    15    1
    31     6     7    1
    32     7     8    1
    33    27    28   ar
    34    28    29    1
    35    35    31   ar
    36    28    24   ar
    37     8     1    1
    38     7     3    1
    39    14     9   ar
@<TRIPOS>MOLECULE
*****
 35 39 0 0 0
SMALL
GASTEIGER

@<TRIPOS>ATOM
      1 N          63.9915   86.3169   15.2962 N.3     1  UNL1       -0.2712
      2 C          63.2891   86.9275   16.4725 C.3     1  UNL1        0.0738
      3 C          63.3879   88.4191   16.3483 C.3     1  UNL1        0.0372
      4 C          63.0149   89.7183   16.9986 C.3     1  UNL1        0.0245
      5 C          63.5478   90.8326   16.1475 C.3     1  UNL1        0.0909
      6 N          64.2502   90.2219   14.9710 N.pl3   1  UNL1       -0.3060
      7 C          64.1514   88.7303   15.0952 C.3     1  UNL1        0.0901
      8 C          64.5244   87.4311   14.4449 C.3     1  UNL1        0.0921
      9 C          64.9317   90.9713   13.8647 C.ar    1  UNL1        0.0756
     10 C          64.2303   91.1767   12.5549 C.ar    1  UNL1        0.0167
     11 C          64.9119   91.9261   11.4486 C.ar    1  UNL1        0.0053
     12 C          66.2948   92.4702   11.6521 C.ar    1  UNL1        0.0737
     13 C          66.9963   92.2648   12.9621 C.ar    1  UNL1        0.0348
     14 C          66.3147   91.5154   14.0684 C.ar    1  UNL1        0.1533
     15 F          67.0162   91.3100   15.3782 F       1  UNL1       -0.2029
     16 C          66.9763   93.2196   10.5458 C.3     1  UNL1        0.4186
     17 F          67.6578   93.9690    9.4395 F       1  UNL1       -0.1659
     18 F          67.2883   91.9228    9.8596 F       1  UNL1       -0.1659
     19 F          66.6643   94.5164   11.2321 F       1  UNL1       -0.1659
     20 C          64.1357   84.8497   15.0195 C.3     1  UNL1        0.0731
     21 C          64.8075   84.3862   13.7610 C.3     1  UNL1        0.0294
     22 C          64.1035   83.4316   12.8427 C.3     1  UNL1        0.0666
     23 S          63.7248   83.8648   11.4575 S.3     1  UNL1       -0.0756
     24 C          61.2696   86.6062   10.2235 C.ar    1  UNL1        0.2029
     25 N          61.0299   86.6473   11.7037 N.ar    1  UNL1       -0.1250
     26 N          61.9205   85.6254   12.3461 N.ar    1  UNL1       -0.1220
     27 C          62.7106   84.9527   11.2630 C.ar    1  UNL1        0.1933
     28 N          62.3084   85.5588    9.9512 N.ar    1  UNL1       -0.2860
     29 C          62.8498   85.1835    8.6036 C.3     1  UNL1        0.1341
     30 C          61.4491   89.8578   10.0131 C.3     1  UNL1        0.0556
     31 C          60.6724   88.9567    9.0995 C.ar    1  UNL1        0.1001
     32 N          59.8419   89.3919    7.9287 N.ar    1  UNL1       -0.2085
     33 C          59.2461   88.1663    7.3018 C.ar    1  UNL1        0.2849
     34 O          59.7084   86.9736    8.0851 O.2     1  UNL1       -0.4283
     35 C          60.5899   87.4621    9.1962 C.ar    1  UNL1        0.1964
@<TRIPOS>BOND
     1    30    31    1
     2    31    32   ar
     3    32    33   ar
     4    33    34   ar
     5    34    35   ar
     6    35    24    1
     7    24    25   ar
     8    25    26   ar
     9    26    27   ar
    10    27    23    1
    11    23    22    1
    12    22    21    1
    13    21    20    1
    14    20     1    1
    15     1     2    1
    16     2     3    1
    17     3     4    1
    18     4     5    1
    19     5     6    1
    20     6     9    1
    21     9    10   ar
    22    10    11   ar
    23    11    12   ar
    24    12    16    1
    25    16    17    1
    26    16    18    1
    27    16    19    1
    28    12    13   ar
    29    13    14   ar
    30    14    15    1
    31     6     7    1
    32     7     8    1
    33    27    28   ar
    34    28    29    1
    35    35    31   ar
    36    28    24   ar
    37     8     1    1
    38     7     3    1
    39    14     9   ar
@<TRIPOS>MOLECULE
*****
 35 39 0 0 0
SMALL
GASTEIGER

@<TRIPOS>ATOM
      1 N          63.9193   84.8613   14.9672 N.3     1  UNL1       -0.2712
      2 C          64.6079   83.6299   14.4579 C.3     1  UNL1        0.0738
      3 C          64.2813   83.4852   13.0011 C.3     1  UNL1        0.0372
      4 C          64.5049   82.6346   11.7859 C.3     1  UNL1        0.0245
      5 C          63.7527   83.2509   10.6438 C.3     1  UNL1        0.0909
      6 N          63.0641   84.4825   11.1532 N.pl3   1  UNL1       -0.3060
      7 C          63.3908   84.6272   12.6100 C.3     1  UNL1        0.0901
      8 C          63.1671   85.4777   13.8251 C.3     1  UNL1        0.0921
      9 C          62.2005   85.4069   10.3471 C.ar    1  UNL1        0.0756
     10 C          61.2598   86.3483   11.0390 C.ar    1  UNL1        0.0167
     11 C          60.3962   87.2727   10.2330 C.ar    1  UNL1        0.0053
     12 C          60.4734   87.2557    8.7351 C.ar    1  UNL1        0.0737
     13 C          61.4141   86.3143    8.0432 C.ar    1  UNL1        0.0348
     14 C          62.2777   85.3898    8.8492 C.ar    1  UNL1        0.1533
     15 F          63.2184   84.4484    8.1573 F       1  UNL1       -0.2029
     16 C          59.6098   88.1801    7.9291 C.3     1  UNL1        0.4186
     17 F          58.7462   89.1045    7.1231 F       1  UNL1       -0.1659
     18 F          59.0572   87.0068    7.1755 F       1  UNL1       -0.1659
     19 F          60.1624   89.3535    8.6827 F       1  UNL1       -0.1659
     20 C          63.9734   85.3846   16.3719 C.3     1  UNL1        0.0731
     21 C          62.8642   86.2491   16.8935 C.3     1  UNL1        0.0294
     22 C          63.1386   87.6745   17.2718 C.3     1  UNL1        0.0666
     23 S          62.4981   88.7914   16.5023 S.3     1  UNL1       -0.0756
     24 C          64.7437   91.3469   14.6334 C.ar    1  UNL1        0.2029
     25 N          64.4757   92.0791   15.9148 N.ar    1  UNL1       -0.1250
     26 N          63.6020   91.2110   16.7709 N.ar    1  UNL1       -0.1220
     27 C          63.3298   89.9421   16.0185 C.ar    1  UNL1        0.1933
     28 N          64.0354   90.0261   14.6975 N.ar    1  UNL1       -0.2860
     29 C          64.0332   88.9740   13.6283 C.3     1  UNL1        0.1341
     30 C          67.9293   92.0474   14.7369 C.3     1  UNL1        0.0556
     31 C          67.0382   92.1695   13.5364 C.ar    1  UNL1        0.1001
     32 N          67.4550   92.6349   12.1727 N.ar    1  UNL1       -0.2085
     33 C          66.2483   92.6006   11.2823 C.ar    1  UNL1        0.2849
     34 O          65.0858   92.1139   12.0957 O.2     1  UNL1       -0.4283
     35 C          65.5740   91.8475   13.4888 C.ar    1  UNL1        0.1964
@<TRIPOS>BOND
     1    30    31    1
     2    31    32   ar
     3    32    33   ar
     4    33    34   ar
     5    34    35   ar
     6    35    24    1
     7    24    25   ar
     8    25    26   ar
     9    26    27   ar
    10    27    23    1
    11    23    22    1
    12    22    21    1
    13    21    20    1
    14    20     1    1
    15     1     2    1
    16     2     3    1
    17     3     4    1
    18     4     5    1
    19     5     6    1
    20     6     9    1
    21     9    10   ar
    22    10    11   ar
    23    11    12   ar
    24    12    16    1
    25    16    17    1
    26    16    18    1
    27    16    19    1
    28    12    13   ar
    29    13    14   ar
    30    14    15    1
    31     6     7    1
    32     7     8    1
    33    27    28   ar
    34    28    29    1
    35    35    31   ar
    36    28    24   ar
    37     8     1    1
    38     7     3    1
    39    14     9   ar
@<TRIPOS>MOLECULE
*****
 35 39 0 0 0
SMALL
GASTEIGER

@<TRIPOS>ATOM
      1 N          63.9648   85.8658   15.0974 N.3     1  UNL1       -0.2712
      2 C          63.4114   86.3679   16.3980 C.3     1  UNL1        0.0738
      3 C          63.4486   87.8672   16.3696 C.3     1  UNL1        0.0372
      4 C          63.1296   89.1041   17.1559 C.3     1  UNL1        0.0245
      5 C          63.5089   90.2931   16.3237 C.3     1  UNL1        0.0909
      6 N          64.0623   89.7909   15.0231 N.pl3   1  UNL1       -0.3060
      7 C          64.0251   88.2917   15.0515 C.3     1  UNL1        0.0901
      8 C          64.3441   87.0548   14.2652 C.3     1  UNL1        0.0921
      9 C          64.5648   90.6392   13.8926 C.ar    1  UNL1        0.0756
     10 C          63.7693   90.7480   12.6255 C.ar    1  UNL1        0.0167
     11 C          64.2718   91.5962   11.4950 C.ar    1  UNL1        0.0053
     12 C          65.5696   92.3356   11.6315 C.ar    1  UNL1        0.0737
     13 C          66.3652   92.2268   12.8986 C.ar    1  UNL1        0.0348
     14 C          65.8627   91.3786   14.0291 C.ar    1  UNL1        0.1533
     15 F          66.6582   91.2698   15.2961 F       1  UNL1       -0.2029
     16 C          66.0721   93.1839   10.5010 C.3     1  UNL1        0.4186
     17 F          66.5745   94.0321    9.3705 F       1  UNL1       -0.1659
     18 F          67.1335   92.1651   10.2084 F       1  UNL1       -0.1659
     19 F          65.0107   94.2026   10.7936 F       1  UNL1       -0.1659
     20 C          64.1129   84.4273   14.6989 C.3     1  UNL1        0.0731
     21 C          64.7299   84.0747   13.3780 C.3     1  UNL1        0.0294
     22 C          64.3451   82.8003   12.6867 C.3     1  UNL1        0.0666
     23 S          63.1916   82.7858   11.7280 S.3     1  UNL1       -0.0756
     24 C          62.3643   86.0311    9.7659 C.ar    1  UNL1        0.2029
     25 N          63.1179   85.2503    8.7303 N.ar    1  UNL1       -0.1250
     26 N          63.5196   83.9397    9.3392 N.ar    1  UNL1       -0.1220
     27 C          63.0142   83.9103   10.7512 C.ar    1  UNL1        0.1933
     28 N          62.3002   85.2029   11.0150 N.ar    1  UNL1       -0.2860
     29 C          61.6382   85.5979   12.3017 C.3     1  UNL1        0.1341
     30 C          59.5899   86.7367    8.1992 C.3     1  UNL1        0.0556
     31 C          60.5025   87.7240    8.8643 C.ar    1  UNL1        0.1001
     32 N          60.3002   89.2090    8.9260 N.ar    1  UNL1       -0.2085
     33 C          61.4503   89.8025    9.6842 C.ar    1  UNL1        0.2849
     34 O          62.3636   88.6842   10.0912 O.2     1  UNL1       -0.4283
     35 C          61.7778   87.3997    9.5844 C.ar    1  UNL1        0.1964
@<TRIPOS>BOND
     1    30    31    1
     2    31    32   ar
     3    32    33   ar
     4    33    34   ar
     5    34    35   ar
     6    35    24    1
     7    24    25   ar
     8    25    26   ar
     9    26    27   ar
    10    27    23    1
    11    23    22    1
    12    22    21    1
    13    21    20    1
    14    20     1    1
    15     1     2    1
    16     2     3    1
    17     3     4    1
    18     4     5    1
    19     5     6    1
    20     6     9    1
    21     9    10   ar
    22    10    11   ar
    23    11    12   ar
    24    12    16    1
    25    16    17    1
    26    16    18    1
    27    16    19    1
    28    12    13   ar
    29    13    14   ar
    30    14    15    1
    31     6     7    1
    32     7     8    1
    33    27    28   ar
    34    28    29    1
    35    35    31   ar
    36    28    24   ar
    37     8     1    1
    38     7     3    1
    39    14     9   ar
@<TRIPOS>MOLECULE
*****
 35 39 0 0 0
SMALL
GASTEIGER

@<TRIPOS>ATOM
      1 N          61.9241   85.6514    9.0631 N.3     1  UNL1       -0.2712
      2 C          62.8147   84.4932    8.7232 C.3     1  UNL1        0.0738
      3 C          63.4853   84.0383    9.9855 C.3     1  UNL1        0.0372
      4 C          64.4502   83.0413   10.5555 C.3     1  UNL1        0.0245
      5 C          64.5704   83.3020   12.0278 C.3     1  UNL1        0.0909
      6 N          63.6798   84.4602   12.3677 N.pl3   1  UNL1       -0.3060
      7 C          63.0092   84.9152   11.1054 C.3     1  UNL1        0.0901
      8 C          62.0443   85.9122   10.5353 C.3     1  UNL1        0.0921
      9 C          63.4926   85.0583   13.7305 C.ar    1  UNL1        0.0756
     10 C          64.1378   86.3694   14.0691 C.ar    1  UNL1        0.0167
     11 C          63.9506   86.9676   15.4319 C.ar    1  UNL1        0.0053
     12 C          63.1184   86.2546   16.4561 C.ar    1  UNL1        0.0737
     13 C          62.4731   84.9434   16.1174 C.ar    1  UNL1        0.0348
     14 C          62.6603   84.3453   14.7546 C.ar    1  UNL1        0.1533
     15 F          62.0151   83.0342   14.4160 F       1  UNL1       -0.2029
     16 C          62.9312   86.8527   17.8189 C.3     1  UNL1        0.4186
     17 F          62.7441   87.4509   19.1816 F       1  UNL1       -0.1659
     18 F          62.3976   85.5436   18.3202 F       1  UNL1       -0.1659
     19 F          63.4649   88.1619   17.3175 F       1  UNL1       -0.1659
     20 C          61.0642   86.4148    8.0998 C.3     1  UNL1        0.0731
     21 C          60.1965   87.5342    8.5936 C.3     1  UNL1        0.0294
     22 C          60.7869   88.8927    8.8299 C.3     1  UNL1        0.0666
     23 S          60.3486   89.7057   10.0118 S.3     1  UNL1       -0.0756
     24 C          63.1564   90.6411   12.5232 C.ar    1  UNL1        0.2029
     25 N          62.2686   89.7920   13.3840 N.ar    1  UNL1       -0.1250
     26 N          61.1087   89.3383   12.5480 N.ar    1  UNL1       -0.1220
     27 C          61.2797   89.9069   11.1705 C.ar    1  UNL1        0.1933
     28 N          62.5452   90.7121   11.1551 N.ar    1  UNL1       -0.2860
     29 C          63.1017   91.4575    9.9784 C.3     1  UNL1        0.1341
     30 C          64.2240   90.9302   15.5934 C.3     1  UNL1        0.0556
     31 C          64.9222   91.4358   14.3659 C.ar    1  UNL1        0.1001
     32 N          66.2337   92.1631   14.3340 N.ar    1  UNL1       -0.2085
     33 C          66.5535   92.4797   12.9031 C.ar    1  UNL1        0.2849
     34 O          65.4397   91.9481   12.0506 O.2     1  UNL1       -0.4283
     35 C          64.4315   91.3030   12.9546 C.ar    1  UNL1        0.1964
@<TRIPOS>BOND
     1    30    31    1
     2    31    32   ar
     3    32    33   ar
     4    33    34   ar
     5    34    35   ar
     6    35    24    1
     7    24    25   ar
     8    25    26   ar
     9    26    27   ar
    10    27    23    1
    11    23    22    1
    12    22    21    1
    13    21    20    1
    14    20     1    1
    15     1     2    1
    16     2     3    1
    17     3     4    1
    18     4     5    1
    19     5     6    1
    20     6     9    1
    21     9    10   ar
    22    10    11   ar
    23    11    12   ar
    24    12    16    1
    25    16    17    1
    26    16    18    1
    27    16    19    1
    28    12    13   ar
    29    13    14   ar
    30    14    15    1
    31     6     7    1
    32     7     8    1
    33    27    28   ar
    34    28    29    1
    35    35    31   ar
    36    28    24   ar
    37     8     1    1
    38     7     3    1
    39    14     9   ar
@<TRIPOS>MOLECULE
*****
 35 39 0 0 0
SMALL
GASTEIGER

@<TRIPOS>ATOM
      1 N          62.3796   85.6185    9.2572 N.3     1  UNL1       -0.2712
      2 C          61.0778   86.1470    8.7319 C.3     1  UNL1        0.0738
      3 C          60.9139   87.5527    9.2289 C.3     1  UNL1        0.0372
      4 C          60.0080   88.7482    9.2115 C.3     1  UNL1        0.0245
      5 C          60.6485   89.8273   10.0332 C.3     1  UNL1        0.0909
      6 N          61.9504   89.2987   10.5585 N.pl3   1  UNL1       -0.3060
      7 C          62.1143   87.8930   10.0615 C.3     1  UNL1        0.0901
      8 C          63.0202   86.6976   10.0789 C.3     1  UNL1        0.0921
      9 C          62.9183   90.0449   11.4282 C.ar    1  UNL1        0.0756
     10 C          63.2269   89.5442   12.8080 C.ar    1  UNL1        0.0167
     11 C          64.1948   90.2903   13.6777 C.ar    1  UNL1        0.0053
     12 C          64.8541   91.5373   13.1676 C.ar    1  UNL1        0.0737
     13 C          64.5456   92.0382   11.7877 C.ar    1  UNL1        0.0348
     14 C          63.5777   91.2920   10.9180 C.ar    1  UNL1        0.1533
     15 F          63.2691   91.7927    9.5382 F       1  UNL1       -0.2029
     16 C          65.8221   92.2835   14.0372 C.3     1  UNL1        0.4186
     17 F          66.7900   93.0297   14.9069 F       1  UNL1       -0.1659
     18 F          65.7786   93.4450   13.0890 F       1  UNL1       -0.1659
     19 F          65.8655   91.1220   14.9854 F       1  UNL1       -0.1659
     20 C          62.9421   84.2510    9.0051 C.3     1  UNL1        0.0731
     21 C          64.0058   83.6995    9.9075 C.3     1  UNL1        0.0294
     22 C          63.8866   82.3026   10.4411 C.3     1  UNL1        0.0666
     23 S          62.8977   81.9962   11.5264 S.3     1  UNL1       -0.0756
     24 C          63.2055   83.9065   14.8912 C.ar    1  UNL1        0.2029
     25 N          63.8194   82.5858   15.2504 N.ar    1  UNL1       -0.1250
     26 N          63.7788   81.7095   14.0337 N.ar    1  UNL1       -0.1220
     27 C          63.1398   82.4886   12.9225 C.ar    1  UNL1        0.1933
     28 N          62.7855   83.8464   13.4524 N.ar    1  UNL1       -0.2860
     29 C          62.1269   84.9503   12.6793 C.3     1  UNL1        0.1341
     30 C          64.7668   86.7622   14.6523 C.3     1  UNL1        0.0556
     31 C          63.7583   86.3937   15.6997 C.ar    1  UNL1        0.1001
     32 N          63.2903   87.2730   16.8212 N.ar    1  UNL1       -0.2085
     33 C          62.2834   86.5039   17.6241 C.ar    1  UNL1        0.2849
     34 O          62.1291   85.1492   16.9988 O.2     1  UNL1       -0.4283
     35 C          63.0406   85.0811   15.8095 C.ar    1  UNL1        0.1964
@<TRIPOS>BOND
     1    30    31    1
     2    31    32   ar
     3    32    33   ar
     4    33    34   ar
     5    34    35   ar
     6    35    24    1
     7    24    25   ar
     8    25    26   ar
     9    26    27   ar
    10    27    23    1
    11    23    22    1
    12    22    21    1
    13    21    20    1
    14    20     1    1
    15     1     2    1
    16     2     3    1
    17     3     4    1
    18     4     5    1
    19     5     6    1
    20     6     9    1
    21     9    10   ar
    22    10    11   ar
    23    11    12   ar
    24    12    16    1
    25    16    17    1
    26    16    18    1
    27    16    19    1
    28    12    13   ar
    29    13    14   ar
    30    14    15    1
    31     6     7    1
    32     7     8    1
    33    27    28   ar
    34    28    29    1
    35    35    31   ar
    36    28    24   ar
    37     8     1    1
    38     7     3    1
    39    14     9   ar
@<TRIPOS>MOLECULE
*****
 35 39 0 0 0
SMALL
GASTEIGER

@<TRIPOS>ATOM
      1 N          63.9852   86.4109   14.8155 N.3     1  UNL1       -0.2712
      2 C          64.4845   85.0061   14.6501 C.3     1  UNL1        0.0738
      3 C          64.0075   84.4981   13.3218 C.3     1  UNL1        0.0372
      4 C          64.0214   83.3160   12.3986 C.3     1  UNL1        0.0245
      5 C          63.2359   83.6761   11.1724 C.3     1  UNL1        0.0909
      6 N          62.7365   85.0809   11.3379 N.pl3   1  UNL1       -0.3060
      7 C          63.2135   85.5889   12.6662 C.3     1  UNL1        0.0901
      8 C          63.1996   86.7711   13.5894 C.3     1  UNL1        0.0921
      9 C          61.9061   85.8437   10.3487 C.ar    1  UNL1        0.0756
     10 C          60.8726   86.8182   10.8305 C.ar    1  UNL1        0.0167
     11 C          60.0421   87.5810    9.8413 C.ar    1  UNL1        0.0053
     12 C          60.2452   87.3693    8.3703 C.ar    1  UNL1        0.0737
     13 C          61.2788   86.3947    7.8884 C.ar    1  UNL1        0.0348
     14 C          62.1092   85.6320    8.8776 C.ar    1  UNL1        0.1533
     15 F          63.1427   84.6575    8.3958 F       1  UNL1       -0.2029
     16 C          59.4148   88.1321    7.3811 C.3     1  UNL1        0.4186
     17 F          58.5843   88.8949    6.3919 F       1  UNL1       -0.1659
     18 F          58.6714   86.8757    7.0363 F       1  UNL1       -0.1659
     19 F          60.1581   89.3885    7.7259 F       1  UNL1       -0.1659
     20 C          64.2286   87.2995   15.9992 C.3     1  UNL1        0.0731
     21 C          63.3063   88.4496   16.2759 C.3     1  UNL1        0.0294
     22 C          63.5436   89.7765   15.6177 C.3     1  UNL1        0.0666
     23 S          64.8163   90.0224   14.8629 S.3     1  UNL1       -0.0756
     24 C          65.3871   92.4413   11.8815 C.ar    1  UNL1        0.2029
     25 N          64.1402   91.7314   11.4443 N.ar    1  UNL1       -0.1250
     26 N          63.7746   90.7389   12.5079 N.ar    1  UNL1       -0.1220
     27 C          64.7956   90.8354   13.6025 C.ar    1  UNL1        0.1933
     28 N          65.7922   91.8875   13.2155 N.ar    1  UNL1       -0.2860
     29 C          66.9845   92.3114   14.0209 C.3     1  UNL1        0.1341
     30 C          67.9767   92.0165    9.9416 C.3     1  UNL1        0.0556
     31 C          67.2935   93.3210   10.2272 C.ar    1  UNL1        0.1001
     32 N          67.6807   94.6593    9.6712 N.ar    1  UNL1       -0.2085
     33 C          66.7297   95.6817   10.2193 C.ar    1  UNL1        0.2849
     34 O          65.7548   94.9752   11.1140 O.2     1  UNL1       -0.4283
     35 C          66.1033   93.5163   11.1189 C.ar    1  UNL1        0.1964
@<TRIPOS>BOND
     1    30    31    1
     2    31    32   ar
     3    32    33   ar
     4    33    34   ar
     5    34    35   ar
     6    35    24    1
     7    24    25   ar
     8    25    26   ar
     9    26    27   ar
    10    27    23    1
    11    23    22    1
    12    22    21    1
    13    21    20    1
    14    20     1    1
    15     1     2    1
    16     2     3    1
    17     3     4    1
    18     4     5    1
    19     5     6    1
    20     6     9    1
    21     9    10   ar
    22    10    11   ar
    23    11    12   ar
    24    12    16    1
    25    16    17    1
    26    16    18    1
    27    16    19    1
    28    12    13   ar
    29    13    14   ar
    30    14    15    1
    31     6     7    1
    32     7     8    1
    33    27    28   ar
    34    28    29    1
    35    35    31   ar
    36    28    24   ar
    37     8     1    1
    38     7     3    1
    39    14     9   ar
@<TRIPOS>MOLECULE
*****
 35 39 0 0 0
SMALL
GASTEIGER

@<TRIPOS>ATOM
      1 N          63.1626   89.2575   13.2011 N.3     1  UNL1       -0.2712
      2 C          62.0432   90.2559   13.1931 C.3     1  UNL1        0.0738
      3 C          61.1810   89.9760   11.9980 C.3     1  UNL1        0.0372
      4 C          59.9563   90.4200   11.2544 C.3     1  UNL1        0.0245
      5 C          59.7860   89.5232   10.0642 C.3     1  UNL1        0.0909
      6 N          60.9055   88.5248   10.0722 N.pl3   1  UNL1       -0.3060
      7 C          61.7676   88.8046   11.2673 C.3     1  UNL1        0.0901
      8 C          62.9923   88.3606   12.0109 C.3     1  UNL1        0.0921
      9 C          61.1243   87.4374    9.0623 C.ar    1  UNL1        0.0756
     10 C          62.4234   86.6880    9.0368 C.ar    1  UNL1        0.0167
     11 C          62.6423   85.6007    8.0269 C.ar    1  UNL1        0.0053
     12 C          61.5621   85.2628    7.0426 C.ar    1  UNL1        0.0737
     13 C          60.2629   86.0122    7.0681 C.ar    1  UNL1        0.0348
     14 C          60.0440   87.0995    8.0780 C.ar    1  UNL1        0.1533
     15 F          58.7450   87.8490    8.1035 F       1  UNL1       -0.2029
     16 C          61.7810   84.1754    6.0327 C.3     1  UNL1        0.4186
     17 F          61.9998   83.0881    5.0229 F       1  UNL1       -0.1659
     18 F          63.2385   84.5247    5.9726 F       1  UNL1       -0.1659
     19 F          60.3234   83.8262    6.0928 F       1  UNL1       -0.1659
     20 C          64.2598   89.1711   14.2203 C.3     1  UNL1        0.0731
     21 C          64.0612   89.7557   15.5873 C.3     1  UNL1        0.0294
     22 C          63.0358   89.1695   16.5121 C.3     1  UNL1        0.0666
     23 S          63.3051   87.8638   17.1995 S.3     1  UNL1       -0.0756
     24 C          62.7314   84.5392   15.2802 C.ar    1  UNL1        0.2029
     25 N          61.4321   84.6765   16.0171 N.ar    1  UNL1       -0.1250
     26 N          61.4888   85.9386   16.8258 N.ar    1  UNL1       -0.1220
     27 C          62.8232   86.5813   16.5887 C.ar    1  UNL1        0.1933
     28 N          63.5912   85.7166   15.6335 N.ar    1  UNL1       -0.2860
     29 C          64.9758   85.9824   15.1214 C.3     1  UNL1        0.1341
     30 C          62.7835   84.6866   12.0206 C.3     1  UNL1        0.0556
     31 C          63.1292   83.4888   12.8546 C.ar    1  UNL1        0.1001
     32 N          63.5595   82.1484   12.3369 N.ar    1  UNL1       -0.2085
     33 C          63.8016   81.2522   13.5151 C.ar    1  UNL1        0.2849
     34 O          63.5208   82.0387   14.7611 O.2     1  UNL1       -0.4283
     35 C          63.1052   83.4210   14.3529 C.ar    1  UNL1        0.1964
@<TRIPOS>BOND
     1    30    31    1
     2    31    32   ar
     3    32    33   ar
     4    33    34   ar
     5    34    35   ar
     6    35    24    1
     7    24    25   ar
     8    25    26   ar
     9    26    27   ar
    10    27    23    1
    11    23    22    1
    12    22    21    1
    13    21    20    1
    14    20     1    1
    15     1     2    1
    16     2     3    1
    17     3     4    1
    18     4     5    1
    19     5     6    1
    20     6     9    1
    21     9    10   ar
    22    10    11   ar
    23    11    12   ar
    24    12    16    1
    25    16    17    1
    26    16    18    1
    27    16    19    1
    28    12    13   ar
    29    13    14   ar
    30    14    15    1
    31     6     7    1
    32     7     8    1
    33    27    28   ar
    34    28    29    1
    35    35    31   ar
    36    28    24   ar
    37     8     1    1
    38     7     3    1
    39    14     9   ar
@<TRIPOS>MOLECULE
*****
 35 39 0 0 0
SMALL
GASTEIGER

@<TRIPOS>ATOM
      1 N          63.6375   87.5475   15.7005 N.3     1  UNL1       -0.2712
      2 C          63.1878   88.4596   16.8032 C.3     1  UNL1        0.0738
      3 C          63.5922   89.8581   16.4418 C.3     1  UNL1        0.0372
      4 C          63.5642   91.2861   16.9000 C.3     1  UNL1        0.0245
      5 C          64.2465   92.1210   15.8572 C.3     1  UNL1        0.0909
      6 N          64.6961   91.2089   14.7544 N.pl3   1  UNL1       -0.3060
      7 C          64.2918   89.8104   15.1158 C.3     1  UNL1        0.0901
      8 C          64.3197   88.3823   14.6576 C.3     1  UNL1        0.0921
      9 C          65.4226   91.6227   13.5090 C.ar    1  UNL1        0.0756
     10 C          64.6517   91.9482   12.2642 C.ar    1  UNL1        0.0167
     11 C          65.3781   92.3620   11.0188 C.ar    1  UNL1        0.0053
     12 C          66.8755   92.4503   11.0182 C.ar    1  UNL1        0.0737
     13 C          67.6465   92.1248   12.2631 C.ar    1  UNL1        0.0348
     14 C          66.9200   91.7110   13.5085 C.ar    1  UNL1        0.1533
     15 F          67.6909   91.3855   14.7534 F       1  UNL1       -0.2029
     16 C          67.6020   92.8642    9.7728 C.3     1  UNL1        0.4186
     17 F          68.3284   93.2780    8.5274 F       1  UNL1       -0.1659
     18 F          66.4485   93.7444    9.3925 F       1  UNL1       -0.1659
     19 F          68.7554   91.9839   10.1532 F       1  UNL1       -0.1659
     20 C          63.4396   86.0615   15.6496 C.3     1  UNL1        0.0731
     21 C          64.6282   85.1479   15.5997 C.3     1  UNL1        0.0294
     22 C          65.0165   84.4920   14.3078 C.3     1  UNL1        0.0666
     23 S          63.9674   83.8566   13.4443 S.3     1  UNL1       -0.0756
     24 C          62.5192   85.2456   10.1217 C.ar    1  UNL1        0.2029
     25 N          62.2959   86.4077   11.0435 N.ar    1  UNL1       -0.1250
     26 N          62.8112   86.0288   12.4003 N.ar    1  UNL1       -0.1220
     27 C          63.3530   84.6326   12.3171 C.ar    1  UNL1        0.1933
     28 N          63.1726   84.1484   10.9089 N.ar    1  UNL1       -0.2860
     29 C          63.5748   82.8034   10.3806 C.3     1  UNL1        0.1341
     30 C          59.9066   86.6361    8.7469 C.3     1  UNL1        0.0556
     31 C          60.9525   85.8294    8.0361 C.ar    1  UNL1        0.1001
     32 N          60.9813   85.5202    6.5686 N.ar    1  UNL1       -0.2085
     33 C          62.1999   84.6900    6.2935 C.ar    1  UNL1        0.2849
     34 O          62.9243   84.4861    7.5911 O.2     1  UNL1       -0.4283
     35 C          62.1534   85.1903    8.6680 C.ar    1  UNL1        0.1964
@<TRIPOS>BOND
     1    30    31    1
     2    31    32   ar
     3    32    33   ar
     4    33    34   ar
     5    34    35   ar
     6    35    24    1
     7    24    25   ar
     8    25    26   ar
     9    26    27   ar
    10    27    23    1
    11    23    22    1
    12    22    21    1
    13    21    20    1
    14    20     1    1
    15     1     2    1
    16     2     3    1
    17     3     4    1
    18     4     5    1
    19     5     6    1
    20     6     9    1
    21     9    10   ar
    22    10    11   ar
    23    11    12   ar
    24    12    16    1
    25    16    17    1
    26    16    18    1
    27    16    19    1
    28    12    13   ar
    29    13    14   ar
    30    14    15    1
    31     6     7    1
    32     7     8    1
    33    27    28   ar
    34    28    29    1
    35    35    31   ar
    36    28    24   ar
    37     8     1    1
    38     7     3    1
    39    14     9   ar
