@<TRIPOS>MOLECULE
*****
 38 41 0 0 0
SMALL
GASTEIGER

@<TRIPOS>ATOM
      1 N          62.1948   88.3117   11.0633 N.pl3   1  UNL1       -0.2926
      2 C          62.4610   86.8426   11.2066 C.3     1  UNL1        0.0922
      3 C          61.7833   85.8649   10.2927 C.3     1  UNL1        0.0220
      4 C          60.8395   86.3565    9.2356 C.3     1  UNL1        0.0126
      5 C          60.5734   87.8258    9.0923 C.3     1  UNL1        0.0963
      6 C          61.2510   88.8034   10.0061 C.3     1  UNL1        0.1012
      7 C          64.2836   91.4439   12.3190 C.ar    1  UNL1        0.1362
      8 C          63.6060   90.4662   11.4053 C.ar    1  UNL1        0.0686
      9 C          62.8725   89.2894   11.9771 C.ar    1  UNL1        0.1361
     10 N          62.8166   89.0902   13.4627 N.ar    1  UNL1       -0.2083
     11 C          63.4943   90.0678   14.3765 C.ar    1  UNL1        0.2374
     12 N          64.2278   91.2446   13.8046 N.ar    1  UNL1       -0.2083
     13 N          66.4841   94.9744   10.6034 N.3     1  UNL1       -0.2698
     14 C          66.4615   94.7534   12.0869 C.3     1  UNL1        0.0939
     15 C          65.7280   93.5765   12.6587 C.3     1  UNL1        0.1095
     16 N          65.0171   92.6207   11.7472 N.pl3   1  UNL1       -0.2903
     17 C          65.0398   92.8417   10.2637 C.3     1  UNL1        0.1095
     18 C          65.7733   94.0185    9.6919 C.3     1  UNL1        0.0939
     19 C          67.2841   96.3436    8.5455 C.3     1  UNL1        0.0188
     20 C          67.2176   96.1512   10.0316 C.3     1  UNL1        0.0722
     21 C          63.4384   89.8686   15.8622 C.3     1  UNL1        0.4524
     22 F          63.3826   89.6694   17.3479 F       1  UNL1       -0.1632
     23 F          63.4552   88.3819   15.6635 F       1  UNL1       -0.1632
     24 F          63.4217   91.3552   16.0610 F       1  UNL1       -0.1632
     25 C          59.6296   88.3175    8.0352 C.2     1  UNL1        0.2237
     26 O          58.2762   87.6880    7.8865 O.2     1  UNL1       -0.2751
     27 N          60.0392   89.4386    7.1266 N.am    1  UNL1       -0.3040
     28 H          60.9275   89.8517    7.2242 H       1  UNL1        0.1494
     29 C          59.0954   89.9302    6.0695 C.3     1  UNL1        0.0942
     30 C          59.1238   91.3700    5.6496 C.3     1  UNL1        0.0507
     31 C          60.0326   91.8099    4.5403 C.ar    1  UNL1        0.0179
     32 C          59.5283   92.7497    3.4857 C.ar    1  UNL1        0.0985
     33 N          60.4371   93.1897    2.3764 N.ar    1  UNL1       -0.2166
     34 C          61.8503   92.6899    2.3219 C.ar    1  UNL1        0.2331
     35 N          62.3547   91.7501    3.3765 N.ar    1  UNL1       -0.2166
     36 C          61.4458   91.3101    4.4858 C.ar    1  UNL1        0.0985
     37 C          62.7592   93.1299    1.2126 C.1     1  UNL1        0.1399
     38 N          63.6680   93.5699    0.1034 N.1     1  UNL1       -0.1876
@<TRIPOS>BOND
     1    19    20    1
     2    20    13    1
     3    13    14    1
     4    14    15    1
     5    15    16    1
     6    16     7    1
     7     7     8   ar
     8     8     9   ar
     9     9     1    1
    10     1     2    1
    11     2     3    1
    12     3     4    1
    13     4     5    1
    14     5    25    1
    15    25    26    2
    16    25    27   am
    17    27    29    1
    18    29    30    1
    19    30    31    1
    20    31    32   ar
    21    32    33   ar
    22    33    34   ar
    23    34    37    1
    24    37    38    3
    25    34    35   ar
    26    35    36   ar
    27     5     6    1
    28     9    10   ar
    29    10    11   ar
    30    11    21    1
    31    21    22    1
    32    21    23    1
    33    21    24    1
    34    11    12   ar
    35    16    17    1
    36    17    18    1
    37    18    13    1
    38    12     7   ar
    39     6     1    1
    40    36    31   ar
    41    27    28    1
@<TRIPOS>MOLECULE
*****
 38 41 0 0 0
SMALL
GASTEIGER

@<TRIPOS>ATOM
      1 N          62.4029   86.5543   10.2203 N.pl3   1  UNL1       -0.2926
      2 C          62.3772   86.5778    8.7208 C.3     1  UNL1        0.0922
      3 C          62.7678   85.3550    7.9447 C.3     1  UNL1        0.0220
      4 C          63.1839   84.1087    8.6682 C.3     1  UNL1        0.0126
      5 C          63.2096   84.0852   10.1678 C.3     1  UNL1        0.0963
      6 C          62.8190   85.3079   10.9439 C.3     1  UNL1        0.1012
      7 C          62.6808   89.8906   12.3515 C.ar    1  UNL1        0.1362
      8 C          63.0713   88.6678   11.5754 C.ar    1  UNL1        0.0686
      9 C          62.0123   87.7771   10.9965 C.ar    1  UNL1        0.1361
     10 N          60.5629   88.1091   11.1936 N.ar    1  UNL1       -0.2083
     11 C          60.1724   89.3318   11.9697 C.ar    1  UNL1        0.2374
     12 N          61.2314   90.2226   12.5486 N.ar    1  UNL1       -0.2083
     13 N          65.8577   92.5629   14.0883 N.3     1  UNL1       -0.2698
     14 C          65.5095   92.6600   12.6325 C.3     1  UNL1        0.0939
     15 C          64.4506   91.7692   12.0536 C.3     1  UNL1        0.1095
     16 N          63.7398   90.7813   12.9304 N.pl3   1  UNL1       -0.2903
     17 C          64.0879   90.6842   14.3862 C.3     1  UNL1        0.1095
     18 C          65.1469   91.5750   14.9651 C.3     1  UNL1        0.0939
     19 C          67.5612   93.1005   15.9748 C.3     1  UNL1        0.0188
     20 C          66.9166   93.4536   14.6673 C.3     1  UNL1        0.0722
     21 C          58.7230   89.6639   12.1668 C.3     1  UNL1        0.4524
     22 F          57.2736   89.9960   12.3640 F       1  UNL1       -0.1632
     23 F          58.8864   90.8852   11.3115 F       1  UNL1       -0.1632
     24 F          58.5595   88.4426   13.0222 F       1  UNL1       -0.1632
     25 C          63.6257   82.8389   10.8914 C.2     1  UNL1        0.2237
     26 O          65.0808   82.5532   11.1172 O.2     1  UNL1       -0.2751
     27 N          62.5867   81.8782   11.3891 N.am    1  UNL1       -0.3040
     28 H          61.6317   82.0657   11.2409 H       1  UNL1        0.1494
     29 C          63.0029   80.6319   12.1126 C.3     1  UNL1        0.0942
     30 C          63.3743   80.6961   13.5645 C.3     1  UNL1        0.0507
     31 C          63.2905   81.9989   14.3032 C.ar    1  UNL1        0.0179
     32 C          64.5393   82.7759   14.5974 C.ar    1  UNL1        0.0985
     33 N          64.4555   84.0787   15.3361 N.ar    1  UNL1       -0.2166
     34 C          63.1229   84.6045   15.7806 C.ar    1  UNL1        0.2331
     35 N          61.8740   83.8275   15.4864 N.ar    1  UNL1       -0.2166
     36 C          61.9578   82.5247   14.7477 C.ar    1  UNL1        0.0985
     37 C          63.0390   85.9073   16.5193 C.1     1  UNL1        0.1399
     38 N          62.9552   87.2101   17.2580 N.1     1  UNL1       -0.1876
@<TRIPOS>BOND
     1    19    20    1
     2    20    13    1
     3    13    14    1
     4    14    15    1
     5    15    16    1
     6    16     7    1
     7     7     8   ar
     8     8     9   ar
     9     9     1    1
    10     1     2    1
    11     2     3    1
    12     3     4    1
    13     4     5    1
    14     5    25    1
    15    25    26    2
    16    25    27   am
    17    27    29    1
    18    29    30    1
    19    30    31    1
    20    31    32   ar
    21    32    33   ar
    22    33    34   ar
    23    34    37    1
    24    37    38    3
    25    34    35   ar
    26    35    36   ar
    27     5     6    1
    28     9    10   ar
    29    10    11   ar
    30    11    21    1
    31    21    22    1
    32    21    23    1
    33    21    24    1
    34    11    12   ar
    35    16    17    1
    36    17    18    1
    37    18    13    1
    38    12     7   ar
    39     6     1    1
    40    36    31   ar
    41    27    28    1
@<TRIPOS>MOLECULE
*****
 38 41 0 0 0
SMALL
GASTEIGER

@<TRIPOS>ATOM
      1 N          62.5188   88.7494   11.1814 N.pl3   1  UNL1       -0.2926
      2 C          61.5136   89.1592   10.1463 C.3     1  UNL1        0.0922
      3 C          60.8345   88.1179    9.3067 C.3     1  UNL1        0.0220
      4 C          61.1609   86.6670    9.5023 C.3     1  UNL1        0.0126
      5 C          62.1662   86.2573   10.5374 C.3     1  UNL1        0.0963
      6 C          62.8452   87.2985   11.3770 C.3     1  UNL1        0.1012
      7 C          64.6354   91.9470   12.2040 C.ar    1  UNL1        0.1362
      8 C          63.9564   90.9058   11.3645 C.ar    1  UNL1        0.0686
      9 C          63.1979   89.7906   12.0210 C.ar    1  UNL1        0.1361
     10 N          63.1183   89.7167   13.5171 N.ar    1  UNL1       -0.2083
     11 C          63.7973   90.7578   14.3566 C.ar    1  UNL1        0.2374
     12 N          64.5558   91.8730   13.7001 N.ar    1  UNL1       -0.2083
     13 N          66.9110   95.2925   10.2345 N.3     1  UNL1       -0.2698
     14 C          66.5275   95.3961   11.6809 C.3     1  UNL1        0.0939
     15 C          65.7690   94.2809   12.3374 C.3     1  UNL1        0.1095
     16 N          65.3939   93.0622   11.5475 N.pl3   1  UNL1       -0.2903
     17 C          65.7774   92.9586   10.1011 C.3     1  UNL1        0.1095
     18 C          66.5359   94.0738    9.4446 C.3     1  UNL1        0.0939
     19 C          67.2980   96.8554    8.1955 C.3     1  UNL1        0.0188
     20 C          67.6695   96.4077    9.5780 C.3     1  UNL1        0.0722
     21 C          63.7178   90.6839   15.8527 C.3     1  UNL1        0.4524
     22 F          63.6382   90.6099   17.3487 F       1  UNL1       -0.1632
     23 F          62.8128   89.4925   15.7457 F       1  UNL1       -0.1632
     24 F          64.6227   91.8753   15.9597 F       1  UNL1       -0.1632
     25 C          62.4925   84.8063   10.7330 C.2     1  UNL1        0.2237
     26 O          61.4262   83.8516   11.1818 O.2     1  UNL1       -0.2751
     27 N          63.8853   84.3100   10.4797 N.am    1  UNL1       -0.3040
     28 H          64.5852   84.9366   10.1851 H       1  UNL1        0.1494
     29 C          64.2116   82.8591   10.6753 C.3     1  UNL1        0.0942
     30 C          64.4688   82.3274   12.0541 C.3     1  UNL1        0.0507
     31 C          64.0447   83.1201   13.2548 C.ar    1  UNL1        0.0179
     32 C          62.7661   82.7827   13.9628 C.ar    1  UNL1        0.0985
     33 N          62.3419   83.5754   15.1635 N.ar    1  UNL1       -0.2166
     34 C          63.1963   84.7055   15.6563 C.ar    1  UNL1        0.2331
     35 N          64.4749   85.0428   14.9483 N.ar    1  UNL1       -0.2166
     36 C          64.8991   84.2502   13.7475 C.ar    1  UNL1        0.0985
     37 C          62.7722   85.4981   16.8570 C.1     1  UNL1        0.1399
     38 N          62.3480   86.2908   18.0577 N.1     1  UNL1       -0.1876
@<TRIPOS>BOND
     1    19    20    1
     2    20    13    1
     3    13    14    1
     4    14    15    1
     5    15    16    1
     6    16     7    1
     7     7     8   ar
     8     8     9   ar
     9     9     1    1
    10     1     2    1
    11     2     3    1
    12     3     4    1
    13     4     5    1
    14     5    25    1
    15    25    26    2
    16    25    27   am
    17    27    29    1
    18    29    30    1
    19    30    31    1
    20    31    32   ar
    21    32    33   ar
    22    33    34   ar
    23    34    37    1
    24    37    38    3
    25    34    35   ar
    26    35    36   ar
    27     5     6    1
    28     9    10   ar
    29    10    11   ar
    30    11    21    1
    31    21    22    1
    32    21    23    1
    33    21    24    1
    34    11    12   ar
    35    16    17    1
    36    17    18    1
    37    18    13    1
    38    12     7   ar
    39     6     1    1
    40    36    31   ar
    41    27    28    1
@<TRIPOS>MOLECULE
*****
 38 41 0 0 0
SMALL
GASTEIGER

@<TRIPOS>ATOM
      1 N          63.2306   86.3124   14.0485 N.pl3   1  UNL1       -0.2926
      2 C          63.3483   85.3534   15.1959 C.3     1  UNL1        0.0922
      3 C          63.6164   85.8681   16.5791 C.3     1  UNL1        0.0220
      4 C          63.7668   87.3418   16.8149 C.3     1  UNL1        0.0126
      5 C          63.6490   88.3008   15.6675 C.3     1  UNL1        0.0963
      6 C          63.3810   87.7861   14.2844 C.3     1  UNL1        0.1012
      7 C          61.9004   86.1102   10.3149 C.ar    1  UNL1        0.1362
      8 C          62.1685   86.6248   11.6981 C.ar    1  UNL1        0.0686
      9 C          62.9625   85.7977   12.6653 C.ar    1  UNL1        0.1361
     10 N          63.4885   84.4560   12.2492 N.ar    1  UNL1       -0.2083
     11 C          63.2205   83.9414   10.8660 C.ar    1  UNL1        0.2374
     12 N          62.4264   84.7685    9.8989 N.ar    1  UNL1       -0.2083
     13 N          59.5181   88.5915    7.4135 N.3     1  UNL1       -0.2698
     14 C          59.5379   87.0973    7.2827 C.3     1  UNL1        0.0939
     15 C          60.3320   86.2703    8.2499 C.3     1  UNL1        0.1095
     16 N          61.1063   86.9373    9.3478 N.pl3   1  UNL1       -0.2903
     17 C          61.0865   88.4314    9.4786 C.3     1  UNL1        0.1095
     18 C          60.2924   89.2585    8.5114 C.3     1  UNL1        0.0939
     19 C          59.4138   90.4365    5.5874 C.3     1  UNL1        0.0188
     20 C          58.7240   89.4185    6.4464 C.3     1  UNL1        0.0722
     21 C          63.7465   82.5997   10.4499 C.3     1  UNL1        0.4524
     22 F          64.2725   81.2580   10.0338 F       1  UNL1       -0.1632
     23 F          64.7157   83.2679    9.5204 F       1  UNL1       -0.1632
     24 F          62.7773   81.9314   11.3794 F       1  UNL1       -0.1632
     25 C          63.7994   89.7745   15.9034 C.2     1  UNL1        0.2237
     26 O          62.8439   90.4900   16.8116 O.2     1  UNL1       -0.2751
     27 N          64.9054   90.5326   15.2309 N.am    1  UNL1       -0.3040
     28 H          65.5325   90.0630   14.6348 H       1  UNL1        0.1494
     29 C          65.0557   92.0063   15.4667 C.3     1  UNL1        0.0942
     30 C          66.3303   92.7004   15.0876 C.3     1  UNL1        0.0507
     31 C          66.8540   92.5940   13.6860 C.ar    1  UNL1        0.0179
     32 C          66.1478   93.2988   12.5660 C.ar    1  UNL1        0.0985
     33 N          66.6715   93.1924   11.1644 N.ar    1  UNL1       -0.2166
     34 C          67.9013   92.3812   10.8828 C.ar    1  UNL1        0.2331
     35 N          68.6075   91.6763   12.0028 N.ar    1  UNL1       -0.2166
     36 C          68.0838   91.7827   13.4044 C.ar    1  UNL1        0.0985
     37 C          68.4250   92.2748    9.4812 C.1     1  UNL1        0.1399
     38 N          68.9486   92.1684    8.0797 N.1     1  UNL1       -0.1876
@<TRIPOS>BOND
     1    19    20    1
     2    20    13    1
     3    13    14    1
     4    14    15    1
     5    15    16    1
     6    16     7    1
     7     7     8   ar
     8     8     9   ar
     9     9     1    1
    10     1     2    1
    11     2     3    1
    12     3     4    1
    13     4     5    1
    14     5    25    1
    15    25    26    2
    16    25    27   am
    17    27    29    1
    18    29    30    1
    19    30    31    1
    20    31    32   ar
    21    32    33   ar
    22    33    34   ar
    23    34    37    1
    24    37    38    3
    25    34    35   ar
    26    35    36   ar
    27     5     6    1
    28     9    10   ar
    29    10    11   ar
    30    11    21    1
    31    21    22    1
    32    21    23    1
    33    21    24    1
    34    11    12   ar
    35    16    17    1
    36    17    18    1
    37    18    13    1
    38    12     7   ar
    39     6     1    1
    40    36    31   ar
    41    27    28    1
@<TRIPOS>MOLECULE
*****
 38 41 0 0 0
SMALL
GASTEIGER

@<TRIPOS>ATOM
      1 N          60.6365   88.0595    9.0704 N.pl3   1  UNL1       -0.2926
      2 C          59.9473   86.7482    8.8353 C.3     1  UNL1        0.0922
      3 C          58.9671   86.6074    7.7086 C.3     1  UNL1        0.0220
      4 C          58.6763   87.7781    6.8169 C.3     1  UNL1        0.0126
      5 C          59.3656   89.0895    7.0521 C.3     1  UNL1        0.0963
      6 C          60.3457   89.2301    8.1788 C.3     1  UNL1        0.1012
      7 C          63.3483   89.6260   11.5081 C.ar    1  UNL1        0.1362
      8 C          62.3682   89.4852   10.3814 C.ar    1  UNL1        0.0686
      9 C          61.6167   88.2002   10.1972 C.ar    1  UNL1        0.1361
     10 N          61.8453   87.0560   11.1398 N.ar    1  UNL1       -0.2083
     11 C          62.8254   87.1967   12.2665 C.ar    1  UNL1        0.2374
     12 N          63.5769   88.4817   12.4507 N.ar    1  UNL1       -0.2083
     13 N          65.6030   93.4810   12.0607 N.3     1  UNL1       -0.2698
     14 C          65.4178   92.5477   13.2202 C.3     1  UNL1        0.0939
     15 C          64.6662   91.2626   13.0360 C.3     1  UNL1        0.1095
     16 N          64.0999   90.9110   11.6923 N.pl3   1  UNL1       -0.2903
     17 C          64.2851   91.8444   10.5328 C.3     1  UNL1        0.1095
     18 C          65.0366   93.1294   10.7170 C.3     1  UNL1        0.0939
     19 C          66.1596   95.8944   11.2760 C.3     1  UNL1        0.0188
     20 C          66.3545   94.7660   12.2449 C.3     1  UNL1        0.0722
     21 C          63.0540   86.0524   13.2091 C.3     1  UNL1        0.4524
     22 F          63.2826   84.9082   14.1516 F       1  UNL1       -0.1632
     23 F          62.0558   85.2286   12.4509 F       1  UNL1       -0.1632
     24 F          64.0522   86.8763   13.9672 F       1  UNL1       -0.1632
     25 C          59.0748   90.2601    6.1605 C.2     1  UNL1        0.2237
     26 O          57.6593   90.7102    5.9514 O.2     1  UNL1       -0.2751
     27 N          60.1995   90.9807    5.4779 N.am    1  UNL1       -0.3040
     28 H          61.1286   90.6852    5.6151 H       1  UNL1        0.1494
     29 C          59.9087   92.1513    4.5863 C.3     1  UNL1        0.0942
     30 C          60.1058   92.0324    3.1041 C.3     1  UNL1        0.0507
     31 C          61.2273   92.7704    2.4350 C.ar    1  UNL1        0.0179
     32 C          62.6038   92.1753    2.4044 C.ar    1  UNL1        0.0985
     33 N          63.7253   92.9133    1.7354 N.ar    1  UNL1       -0.2166
     34 C          63.4703   94.2464    1.0969 C.ar    1  UNL1        0.2331
     35 N          62.0937   94.8415    1.1275 N.ar    1  UNL1       -0.2166
     36 C          60.9723   94.1035    1.7965 C.ar    1  UNL1        0.0985
     37 C          64.5917   94.9844    0.4278 C.1     1  UNL1        0.1399
     38 N          65.7132   95.7224   -0.2412 N.1     1  UNL1       -0.1876
@<TRIPOS>BOND
     1    19    20    1
     2    20    13    1
     3    13    14    1
     4    14    15    1
     5    15    16    1
     6    16     7    1
     7     7     8   ar
     8     8     9   ar
     9     9     1    1
    10     1     2    1
    11     2     3    1
    12     3     4    1
    13     4     5    1
    14     5    25    1
    15    25    26    2
    16    25    27   am
    17    27    29    1
    18    29    30    1
    19    30    31    1
    20    31    32   ar
    21    32    33   ar
    22    33    34   ar
    23    34    37    1
    24    37    38    3
    25    34    35   ar
    26    35    36   ar
    27     5     6    1
    28     9    10   ar
    29    10    11   ar
    30    11    21    1
    31    21    22    1
    32    21    23    1
    33    21    24    1
    34    11    12   ar
    35    16    17    1
    36    17    18    1
    37    18    13    1
    38    12     7   ar
    39     6     1    1
    40    36    31   ar
    41    27    28    1
@<TRIPOS>MOLECULE
*****
 38 41 0 0 0
SMALL
GASTEIGER

@<TRIPOS>ATOM
      1 N          61.4342   93.0341    0.6657 N.pl3   1  UNL1       -0.2926
      2 C          62.9065   92.8410    0.8783 C.3     1  UNL1        0.0922
      3 C          63.4155   92.3530    2.2023 C.3     1  UNL1        0.0220
      4 C          62.4522   92.0581    3.3136 C.3     1  UNL1        0.0126
      5 C          60.9799   92.2512    3.1010 C.3     1  UNL1        0.0963
      6 C          60.4710   92.7392    1.7770 C.3     1  UNL1        0.1012
      7 C          59.0163   94.5358   -2.1000 C.ar    1  UNL1        0.1362
      8 C          59.5254   94.0478   -0.7761 C.ar    1  UNL1        0.0686
      9 C          60.9252   93.5220   -0.6583 C.ar    1  UNL1        0.1361
     10 N          61.8161   93.4842   -1.8645 N.ar    1  UNL1       -0.2083
     11 C          61.3071   93.9722   -3.1884 C.ar    1  UNL1        0.2374
     12 N          59.9072   94.4979   -3.3061 N.ar    1  UNL1       -0.2083
     13 N          54.8167   96.1131   -2.4532 N.3     1  UNL1       -0.2698
     14 C          55.3359   95.1304   -3.4604 C.3     1  UNL1        0.0939
     15 C          56.7358   94.6047   -3.3427 C.3     1  UNL1        0.1095
     16 N          57.6165   95.0616   -2.2177 N.pl3   1  UNL1       -0.2903
     17 C          57.0972   96.0442   -1.2104 C.3     1  UNL1        0.1095
     18 C          55.6973   96.5700   -1.3282 C.3     1  UNL1        0.0939
     19 C          52.2505   95.7279   -2.3265 C.3     1  UNL1        0.0188
     20 C          53.4168   96.6389   -2.5709 C.3     1  UNL1        0.0722
     21 C          62.1980   93.9343   -4.3946 C.3     1  UNL1        0.4524
     22 F          63.0889   93.8965   -5.6008 F       1  UNL1       -0.1632
     23 F          62.9764   92.8067   -3.7843 F       1  UNL1       -0.1632
     24 F          61.4196   95.0620   -5.0049 F       1  UNL1       -0.1632
     25 C          60.0166   91.9563    4.2123 C.2     1  UNL1        0.2237
     26 O          58.7705   92.7777    4.3624 O.2     1  UNL1       -0.2751
     27 N          60.2995   90.8401    5.1736 N.am    1  UNL1       -0.3040
     28 H          61.1173   90.3010    5.0751 H       1  UNL1        0.1494
     29 C          59.3362   90.5452    6.2850 C.3     1  UNL1        0.0942
     30 C          58.9490   89.1276    6.5855 C.3     1  UNL1        0.0507
     31 C          59.5982   88.3980    7.7240 C.ar    1  UNL1        0.0179
     32 C          59.6661   86.8996    7.7132 C.ar    1  UNL1        0.0985
     33 N          60.3153   86.1700    8.8517 N.ar    1  UNL1       -0.2166
     34 C          60.8968   86.9388   10.0010 C.ar    1  UNL1        0.2331
     35 N          60.8290   88.4372   10.0117 N.ar    1  UNL1       -0.2166
     36 C          60.1797   89.1668    8.8732 C.ar    1  UNL1        0.0985
     37 C          61.5461   86.2093   11.1394 C.1     1  UNL1        0.1399
     38 N          62.1954   85.4797   12.2779 N.1     1  UNL1       -0.1876
@<TRIPOS>BOND
     1    19    20    1
     2    20    13    1
     3    13    14    1
     4    14    15    1
     5    15    16    1
     6    16     7    1
     7     7     8   ar
     8     8     9   ar
     9     9     1    1
    10     1     2    1
    11     2     3    1
    12     3     4    1
    13     4     5    1
    14     5    25    1
    15    25    26    2
    16    25    27   am
    17    27    29    1
    18    29    30    1
    19    30    31    1
    20    31    32   ar
    21    32    33   ar
    22    33    34   ar
    23    34    37    1
    24    37    38    3
    25    34    35   ar
    26    35    36   ar
    27     5     6    1
    28     9    10   ar
    29    10    11   ar
    30    11    21    1
    31    21    22    1
    32    21    23    1
    33    21    24    1
    34    11    12   ar
    35    16    17    1
    36    17    18    1
    37    18    13    1
    38    12     7   ar
    39     6     1    1
    40    36    31   ar
    41    27    28    1
@<TRIPOS>MOLECULE
*****
 38 41 0 0 0
SMALL
GASTEIGER

@<TRIPOS>ATOM
      1 N          60.6543   88.0545    9.1631 N.pl3   1  UNL1       -0.2926
      2 C          59.8949   86.7709    9.0029 C.3     1  UNL1        0.0922
      3 C          58.9071   86.6184    7.8842 C.3     1  UNL1        0.0220
      4 C          58.6789   87.7495    6.9259 C.3     1  UNL1        0.0126
      5 C          59.4383   89.0332    7.0861 C.3     1  UNL1        0.0963
      6 C          60.4260   89.1856    8.2047 C.3     1  UNL1        0.1012
      7 C          63.3738   89.6504   11.5728 C.ar    1  UNL1        0.1362
      8 C          62.3862   89.4979   10.4543 C.ar    1  UNL1        0.0686
      9 C          61.6420   88.2070   10.2817 C.ar    1  UNL1        0.1361
     10 N          61.8855   87.0686   11.2276 N.ar    1  UNL1       -0.2083
     11 C          62.8732   87.2212   12.3461 C.ar    1  UNL1        0.2374
     12 N          63.6174   88.5121   12.5187 N.ar    1  UNL1       -0.2083
     13 N          65.6063   93.5232   12.0907 N.3     1  UNL1       -0.2698
     14 C          64.9912   93.1834   10.7655 C.3     1  UNL1        0.0939
     15 C          64.2471   91.8925   10.5929 C.3     1  UNL1        0.1095
     16 N          64.1180   90.9413   11.7455 N.pl3   1  UNL1       -0.2903
     17 C          64.7331   91.2810   13.0707 C.3     1  UNL1        0.1095
     18 C          65.4772   92.5719   13.2433 C.3     1  UNL1        0.0939
     19 C          66.3626   95.8265   11.1567 C.3     1  UNL1        0.0188
     20 C          66.3504   94.8141   12.2634 C.3     1  UNL1        0.0722
     21 C          63.1168   86.0828   13.2921 C.3     1  UNL1        0.4524
     22 F          63.3603   84.9444   14.2380 F       1  UNL1       -0.1632
     23 F          62.1175   85.2492   12.5462 F       1  UNL1       -0.1632
     24 F          64.1161   86.9163   14.0380 F       1  UNL1       -0.1632
     25 C          59.2100   90.1643    6.1278 C.2     1  UNL1        0.2237
     26 O          57.8190   90.6669    5.8785 O.2     1  UNL1       -0.2751
     27 N          60.3730   90.7928    5.4188 N.am    1  UNL1       -0.3040
     28 H          61.2860   90.4629    5.5824 H       1  UNL1        0.1494
     29 C          60.1447   91.9239    4.4604 C.3     1  UNL1        0.0942
     30 C          61.2252   92.3224    3.4994 C.3     1  UNL1        0.0507
     31 C          60.8821   92.6370    2.0734 C.ar    1  UNL1        0.0179
     32 C          59.4931   93.0757    1.7155 C.ar    1  UNL1        0.0985
     33 N          59.1500   93.3903    0.2896 N.ar    1  UNL1       -0.2166
     34 C          60.1959   93.2663   -0.7784 C.ar    1  UNL1        0.2331
     35 N          61.5849   92.8276   -0.4205 N.ar    1  UNL1       -0.2166
     36 C          61.9280   92.5129    1.0054 C.ar    1  UNL1        0.0985
     37 C          59.8528   93.5809   -2.2044 C.1     1  UNL1        0.1399
     38 N          59.5097   93.8956   -3.6303 N.1     1  UNL1       -0.1876
@<TRIPOS>BOND
     1    19    20    1
     2    20    13    1
     3    13    14    1
     4    14    15    1
     5    15    16    1
     6    16     7    1
     7     7     8   ar
     8     8     9   ar
     9     9     1    1
    10     1     2    1
    11     2     3    1
    12     3     4    1
    13     4     5    1
    14     5    25    1
    15    25    26    2
    16    25    27   am
    17    27    29    1
    18    29    30    1
    19    30    31    1
    20    31    32   ar
    21    32    33   ar
    22    33    34   ar
    23    34    37    1
    24    37    38    3
    25    34    35   ar
    26    35    36   ar
    27     5     6    1
    28     9    10   ar
    29    10    11   ar
    30    11    21    1
    31    21    22    1
    32    21    23    1
    33    21    24    1
    34    11    12   ar
    35    16    17    1
    36    17    18    1
    37    18    13    1
    38    12     7   ar
    39     6     1    1
    40    36    31   ar
    41    27    28    1
@<TRIPOS>MOLECULE
*****
 38 41 0 0 0
SMALL
GASTEIGER

@<TRIPOS>ATOM
      1 N          63.3790   89.4215   14.2527 N.pl3   1  UNL1       -0.2926
      2 C          63.3619   90.3726   15.4124 C.3     1  UNL1        0.0922
      3 C          63.3899   89.8443   16.8161 C.3     1  UNL1        0.0220
      4 C          63.4349   88.3649   17.0599 C.3     1  UNL1        0.0126
      5 C          63.4519   87.4138   15.9001 C.3     1  UNL1        0.0963
      6 C          63.4240   87.9421   14.4965 C.3     1  UNL1        0.1012
      7 C          64.2438   91.5925   11.0451 C.ar    1  UNL1        0.1362
      8 C          64.2717   91.0642   12.4487 C.ar    1  UNL1        0.0686
      9 C          63.3511   89.9497   12.8490 C.ar    1  UNL1        0.1361
     10 N          62.4025   89.3634   11.8458 N.ar    1  UNL1       -0.2083
     11 C          62.3746   89.8917   10.4422 C.ar    1  UNL1        0.2374
     12 N          63.2953   91.0062   10.0418 N.ar    1  UNL1       -0.2083
     13 N          67.0056   94.9361    9.8440 N.3     1  UNL1       -0.2698
     14 C          67.4471   93.5099    9.6988 C.3     1  UNL1        0.0939
     15 C          66.5264   92.3954   10.0992 C.3     1  UNL1        0.1095
     16 N          65.1644   92.7070   10.6447 N.pl3   1  UNL1       -0.2903
     17 C          64.7230   94.1332   10.7899 C.3     1  UNL1        0.1095
     18 C          65.6436   95.2477   10.3895 C.3     1  UNL1        0.0939
     19 C          67.6389   96.8543    8.2102 C.3     1  UNL1        0.0188
     20 C          67.9263   96.0506    9.4437 C.3     1  UNL1        0.0722
     21 C          61.4261   89.3054    9.4388 C.3     1  UNL1        0.4524
     22 F          60.4776   88.7192    8.4355 F       1  UNL1       -0.1632
     23 F          62.3415   88.1308    9.2598 F       1  UNL1       -0.1632
     24 F          60.5106   90.4801    9.6179 F       1  UNL1       -0.1632
     25 C          63.4969   85.9345   16.1439 C.2     1  UNL1        0.2237
     26 O          62.6042   85.3175   17.1795 O.2     1  UNL1       -0.2751
     27 N          64.4347   85.0720   15.3521 N.am    1  UNL1       -0.3040
     28 H          65.0206   85.4769   14.6725 H       1  UNL1        0.1494
     29 C          64.4797   83.5927   15.5960 C.3     1  UNL1        0.0942
     30 C          63.9369   82.6461   14.5668 C.3     1  UNL1        0.0507
     31 C          63.7354   83.1088   13.1543 C.ar    1  UNL1        0.0179
     32 C          64.5986   82.5627   12.0558 C.ar    1  UNL1        0.0985
     33 N          64.3971   83.0254   10.6433 N.ar    1  UNL1       -0.2166
     34 C          63.3326   84.0344   10.3292 C.ar    1  UNL1        0.2331
     35 N          62.4694   84.5806   11.4276 N.ar    1  UNL1       -0.2166
     36 C          62.6709   84.1178   12.8402 C.ar    1  UNL1        0.0985
     37 C          63.1312   84.4972    8.9166 C.1     1  UNL1        0.1399
     38 N          62.9297   84.9599    7.5041 N.1     1  UNL1       -0.1876
@<TRIPOS>BOND
     1    19    20    1
     2    20    13    1
     3    13    14    1
     4    14    15    1
     5    15    16    1
     6    16     7    1
     7     7     8   ar
     8     8     9   ar
     9     9     1    1
    10     1     2    1
    11     2     3    1
    12     3     4    1
    13     4     5    1
    14     5    25    1
    15    25    26    2
    16    25    27   am
    17    27    29    1
    18    29    30    1
    19    30    31    1
    20    31    32   ar
    21    32    33   ar
    22    33    34   ar
    23    34    37    1
    24    37    38    3
    25    34    35   ar
    26    35    36   ar
    27     5     6    1
    28     9    10   ar
    29    10    11   ar
    30    11    21    1
    31    21    22    1
    32    21    23    1
    33    21    24    1
    34    11    12   ar
    35    16    17    1
    36    17    18    1
    37    18    13    1
    38    12     7   ar
    39     6     1    1
    40    36    31   ar
    41    27    28    1
@<TRIPOS>MOLECULE
*****
 38 41 0 0 0
SMALL
GASTEIGER

@<TRIPOS>ATOM
      1 N          62.3093   85.7736   10.1156 N.pl3   1  UNL1       -0.2926
      2 C          63.1069   84.9217    9.1732 C.3     1  UNL1        0.0922
      3 C          62.7277   84.8495    7.7237 C.3     1  UNL1        0.0220
      4 C          61.5510   85.6293    7.2165 C.3     1  UNL1        0.0126
      5 C          60.7534   86.4813    8.1590 C.3     1  UNL1        0.0963
      6 C          61.1325   86.5534    9.6084 C.3     1  UNL1        0.1012
      7 C          63.4382   87.2355   13.6282 C.ar    1  UNL1        0.1362
      8 C          63.0591   87.1634   12.1787 C.ar    1  UNL1        0.0686
      9 C          62.6884   85.8457   11.5651 C.ar    1  UNL1        0.1361
     10 N          62.6969   84.6003   12.4010 N.ar    1  UNL1       -0.2083
     11 C          63.0760   84.6725   13.8505 C.ar    1  UNL1        0.2374
     12 N          63.4467   85.9901   14.4640 N.ar    1  UNL1       -0.2083
     13 N          64.5502   91.1884   15.4689 N.3     1  UNL1       -0.2698
     14 C          63.8049   90.1679   16.2770 C.3     1  UNL1        0.0939
     15 C          63.4343   88.8503   15.6634 C.3     1  UNL1        0.1095
     16 N          63.8089   88.5532   14.2417 N.pl3   1  UNL1       -0.2903
     17 C          64.5541   89.5737   13.4336 C.3     1  UNL1        0.1095
     18 C          64.9248   90.8913   14.0472 C.3     1  UNL1        0.0939
     19 C          66.3599   92.9236   16.1499 C.3     1  UNL1        0.0188
     20 C          64.9208   92.5061   16.0825 C.3     1  UNL1        0.0722
     21 C          63.0845   83.4270   14.6865 C.3     1  UNL1        0.4524
     22 F          63.0930   82.1816   15.5224 F       1  UNL1       -0.1632
     23 F          64.0434   84.0744   15.6411 F       1  UNL1       -0.1632
     24 F          62.1256   82.7796   13.7318 F       1  UNL1       -0.1632
     25 C          59.5766   87.2611    7.6519 C.2     1  UNL1        0.2237
     26 O          58.1854   86.7415    7.8628 O.2     1  UNL1       -0.2751
     27 N          59.7911   88.5605    6.9337 N.am    1  UNL1       -0.3040
     28 H          60.7043   88.9015    6.7953 H       1  UNL1        0.1494
     29 C          58.6144   89.3403    6.4266 C.3     1  UNL1        0.0942
     30 C          58.7219   90.8249    6.2415 C.3     1  UNL1        0.0507
     31 C          59.5334   91.3828    5.1100 C.ar    1  UNL1        0.0179
     32 C          60.9859   91.0304    4.9836 C.ar    1  UNL1        0.0985
     33 N          61.7973   91.5883    3.8521 N.ar    1  UNL1       -0.2166
     34 C          61.1562   92.4986    2.8469 C.ar    1  UNL1        0.2331
     35 N          59.7037   92.8509    2.9733 N.ar    1  UNL1       -0.2166
     36 C          58.8923   92.2930    4.1048 C.ar    1  UNL1        0.0985
     37 C          61.9676   93.0565    1.7154 C.1     1  UNL1        0.1399
     38 N          62.7790   93.6144    0.5839 N.1     1  UNL1       -0.1876
@<TRIPOS>BOND
     1    19    20    1
     2    20    13    1
     3    13    14    1
     4    14    15    1
     5    15    16    1
     6    16     7    1
     7     7     8   ar
     8     8     9   ar
     9     9     1    1
    10     1     2    1
    11     2     3    1
    12     3     4    1
    13     4     5    1
    14     5    25    1
    15    25    26    2
    16    25    27   am
    17    27    29    1
    18    29    30    1
    19    30    31    1
    20    31    32   ar
    21    32    33   ar
    22    33    34   ar
    23    34    37    1
    24    37    38    3
    25    34    35   ar
    26    35    36   ar
    27     5     6    1
    28     9    10   ar
    29    10    11   ar
    30    11    21    1
    31    21    22    1
    32    21    23    1
    33    21    24    1
    34    11    12   ar
    35    16    17    1
    36    17    18    1
    37    18    13    1
    38    12     7   ar
    39     6     1    1
    40    36    31   ar
    41    27    28    1
