@<TRIPOS>MOLECULE
*****
 28 30 0 0 0
SMALL
GASTEIGER

@<TRIPOS>ATOM
      1 C          63.5170   89.6139   15.5648 C.ar    1  UNL1        0.0577
      2 C          63.2566   88.8156   16.8077 C.ar    1  UNL1        0.0462
      3 C          63.3524   87.3192   16.7717 C.ar    1  UNL1        0.1602
      4 F          63.0921   86.5208   18.0146 F       1  UNL1       -0.2027
      5 C          63.7086   86.6210   15.4927 C.ar    1  UNL1        0.1534
      6 C          63.9690   87.4193   14.2498 C.ar    1  UNL1        0.0351
      7 C          63.8732   88.9157   14.2858 C.ar    1  UNL1        0.0722
      8 CL         64.1335   89.7141   13.0429 Cl      1  UNL1       -0.0809
      9 S          63.8044   85.1244   15.4567 S.O2    1  UNL1        0.0772
     10 O          65.2473   85.2264   15.0596 O.2     1  UNL1       -0.1498
     11 O          62.3616   85.0225   15.8539 O.2     1  UNL1       -0.1498
     12 N          63.9003   83.6280   15.4208 N.pl3   1  UNL1       -0.1936
     13 H          64.2872   83.1410   16.1839 H       1  UNL1        0.1758
     14 C          63.4066   82.8734   14.2220 C.ar    1  UNL1        0.1786
     15 N          63.0324   81.4212   14.1869 N.ar    1  UNL1       -0.2214
     16 C          62.5951   81.0889   12.7911 C.ar    1  UNL1        0.1079
     17 C          62.6989   82.3357   11.9635 C.ar    1  UNL1        0.0588
     18 S          63.2005   83.4386   12.8479 S.2     1  UNL1       -0.0497
     19 N          63.4212   91.1105   15.6008 N.pl3   1  UNL1       -0.3319
     20 H          62.6480   91.5642   15.1939 H       1  UNL1        0.1468
     21 C          64.5034   91.9157   16.2567 C.3     1  UNL1        0.0888
     22 O          69.4112   92.7625   14.3490 O.2     1  UNL1       -0.1730
     23 S          68.1436   92.6790   15.1466 S.O2    1  UNL1       -0.0100
     24 O          68.9356   93.4135   16.1873 O.2     1  UNL1       -0.1730
     25 C          67.6167   91.9619   13.9390 C.3     1  UNL1        0.1509
     26 C          66.1888   91.5887   14.2079 C.3     1  UNL1        0.0288
     27 C          65.8335   92.0752   15.5816 C.3     1  UNL1        0.0449
     28 C          67.0415   92.7490   16.1617 C.3     1  UNL1        0.1525
@<TRIPOS>BOND
     1    22    23    2
     2    23    24    2
     3    23    25    1
     4    25    26    1
     5    26    27    1
     6    27    21    1
     7    21    19    1
     8    19     1    1
     9     1     2   ar
    10     2     3   ar
    11     3     4    1
    12     3     5   ar
    13     5     9    1
    14     9    10    2
    15     9    11    2
    16     9    12    1
    17    12    14    1
    18    14    15   ar
    19    15    16   ar
    20    16    17   ar
    21    17    18   ar
    22     5     6   ar
    23     6     7   ar
    24     7     8    1
    25    27    28    1
    26    28    23    1
    27     7     1   ar
    28    18    14   ar
    29    19    20    1
    30    12    13    1
@<TRIPOS>MOLECULE
*****
 28 30 0 0 0
SMALL
GASTEIGER

@<TRIPOS>ATOM
      1 C          62.8599   89.5073   11.9298 C.ar    1  UNL1        0.0577
      2 C          63.8264   89.6811   13.0636 C.ar    1  UNL1        0.0462
      3 C          64.8103   90.8132   13.0435 C.ar    1  UNL1        0.1602
      4 F          65.7768   90.9871   14.1774 F       1  UNL1       -0.2027
      5 C          64.8277   91.7713   11.8896 C.ar    1  UNL1        0.1534
      6 C          63.8612   91.5975   10.7557 C.ar    1  UNL1        0.0351
      7 C          62.8773   90.4655   10.7758 C.ar    1  UNL1        0.0722
      8 CL         61.9108   90.2916    9.6419 Cl      1  UNL1       -0.0809
      9 S          65.8116   92.9034   11.8695 S.O2    1  UNL1        0.0772
     10 O          65.3619   93.3185   13.2390 O.2     1  UNL1       -0.1498
     11 O          66.2613   92.4884   10.5001 O.2     1  UNL1       -0.1498
     12 N          66.7955   94.0355   11.8495 N.pl3   1  UNL1       -0.1936
     13 H          67.4561   94.1264   12.5738 H       1  UNL1        0.1758
     14 C          66.7728   95.0291   10.7260 C.ar    1  UNL1        0.1786
     15 N          67.7816   95.1334    9.6208 N.ar    1  UNL1       -0.2214
     16 C          67.3697   96.2616    8.7222 C.ar    1  UNL1        0.1079
     17 C          66.1063   96.8546    9.2720 C.ar    1  UNL1        0.0588
     18 S          65.7374   96.0928   10.5105 S.2     1  UNL1       -0.0497
     19 N          61.8760   88.3752   11.9498 N.pl3   1  UNL1       -0.3319
     20 H          60.9939   88.4970   12.3697 H       1  UNL1        0.1468
     21 C          62.2360   87.0575   11.3301 C.3     1  UNL1        0.0888
     22 O          59.6290   85.9097    6.8214 O.2     1  UNL1       -0.1730
     23 S          60.0809   86.3667    8.1767 S.O2    1  UNL1       -0.0100
     24 O          58.6805   86.8914    8.2932 O.2     1  UNL1       -0.1730
     25 C          61.3869   85.7464    7.7768 C.3     1  UNL1        0.1509
     26 C          62.3531   85.9297    8.9095 C.3     1  UNL1        0.0288
     27 C          61.6443   86.6633   10.0093 C.3     1  UNL1        0.0449
     28 C          60.2401   86.9333    9.5564 C.3     1  UNL1        0.1525
@<TRIPOS>BOND
     1    22    23    2
     2    23    24    2
     3    23    25    1
     4    25    26    1
     5    26    27    1
     6    27    21    1
     7    21    19    1
     8    19     1    1
     9     1     2   ar
    10     2     3   ar
    11     3     4    1
    12     3     5   ar
    13     5     9    1
    14     9    10    2
    15     9    11    2
    16     9    12    1
    17    12    14    1
    18    14    15   ar
    19    15    16   ar
    20    16    17   ar
    21    17    18   ar
    22     5     6   ar
    23     6     7   ar
    24     7     8    1
    25    27    28    1
    26    28    23    1
    27     7     1   ar
    28    18    14   ar
    29    19    20    1
    30    12    13    1
@<TRIPOS>MOLECULE
*****
 28 30 0 0 0
SMALL
GASTEIGER

@<TRIPOS>ATOM
      1 C          61.9337   88.3267   11.3334 C.ar    1  UNL1        0.0577
      2 C          62.9131   88.2976   12.4690 C.ar    1  UNL1        0.0462
      3 C          63.7791   89.4912   12.7434 C.ar    1  UNL1        0.1602
      4 F          64.7586   89.4621   13.8791 F       1  UNL1       -0.2027
      5 C          63.6656   90.7140   11.8820 C.ar    1  UNL1        0.1534
      6 C          62.6862   90.7432   10.7464 C.ar    1  UNL1        0.0351
      7 C          61.8202   89.5495   10.4720 C.ar    1  UNL1        0.0722
      8 CL         60.8407   89.5786    9.3363 Cl      1  UNL1       -0.0809
      9 S          64.5317   91.9077   12.1564 S.O2    1  UNL1        0.0772
     10 O          64.9890   91.9041   10.7278 O.2     1  UNL1       -0.1498
     11 O          64.0743   91.9112   13.5849 O.2     1  UNL1       -0.1498
     12 N          65.3977   93.1013   12.4307 N.pl3   1  UNL1       -0.1936
     13 H          65.2581   93.9365   11.9286 H       1  UNL1        0.1758
     14 C          66.4765   93.0223   13.4700 C.ar    1  UNL1        0.1786
     15 N          66.6626   93.9658   14.6211 N.ar    1  UNL1       -0.2214
     16 C          67.8596   93.5125   15.4031 C.ar    1  UNL1        0.1079
     17 C          68.4134   92.2888   14.7353 C.ar    1  UNL1        0.0588
     18 S          67.5585   91.9858   13.5405 S.2     1  UNL1       -0.0497
     19 N          61.0676   87.1331   11.0590 N.pl3   1  UNL1       -0.3319
     20 H          60.1374   87.1154   11.3809 H       1  UNL1        0.1468
     21 C          61.6189   85.9664   10.2943 C.3     1  UNL1        0.0888
     22 O          64.7982   82.1591   12.2538 O.2     1  UNL1       -0.1730
     23 S          64.0287   83.1388   11.4182 S.O2    1  UNL1       -0.0100
     24 O          64.7703   82.5080   10.2772 O.2     1  UNL1       -0.1730
     25 C          63.4479   83.5648   12.7341 C.3     1  UNL1        0.1509
     26 C          62.4745   84.6759   12.4732 C.3     1  UNL1        0.0288
     27 C          62.4537   84.9365   10.9961 C.3     1  UNL1        0.0449
     28 C          63.4142   83.9866   10.3442 C.3     1  UNL1        0.1525
@<TRIPOS>BOND
     1    22    23    2
     2    23    24    2
     3    23    25    1
     4    25    26    1
     5    26    27    1
     6    27    21    1
     7    21    19    1
     8    19     1    1
     9     1     2   ar
    10     2     3   ar
    11     3     4    1
    12     3     5   ar
    13     5     9    1
    14     9    10    2
    15     9    11    2
    16     9    12    1
    17    12    14    1
    18    14    15   ar
    19    15    16   ar
    20    16    17   ar
    21    17    18   ar
    22     5     6   ar
    23     6     7   ar
    24     7     8    1
    25    27    28    1
    26    28    23    1
    27     7     1   ar
    28    18    14   ar
    29    19    20    1
    30    12    13    1
@<TRIPOS>MOLECULE
*****
 28 30 0 0 0
SMALL
GASTEIGER

@<TRIPOS>ATOM
      1 C          65.2217   91.9797   12.4566 C.ar    1  UNL1        0.0577
      2 C          64.5621   91.9561   11.1097 C.ar    1  UNL1        0.0462
      3 C          63.4033   91.0375   10.8582 C.ar    1  UNL1        0.1602
      4 F          62.7435   91.0139    9.5112 F       1  UNL1       -0.2027
      5 C          62.9041   90.1426   11.9536 C.ar    1  UNL1        0.1534
      6 C          63.5637   90.1662   13.3005 C.ar    1  UNL1        0.0351
      7 C          64.7225   91.0848   13.5520 C.ar    1  UNL1        0.0722
      8 CL         65.3823   91.1084   14.8990 Cl      1  UNL1       -0.0809
      9 S          61.7452   89.2240   11.7020 S.O2    1  UNL1        0.0772
     10 O          62.6506   88.0386   11.8602 O.2     1  UNL1       -0.1498
     11 O          60.8398   90.4094   11.5438 O.2     1  UNL1       -0.1498
     12 N          60.5864   88.3054   11.4504 N.pl3   1  UNL1       -0.1936
     13 H          59.9553   88.0987   12.1772 H       1  UNL1        0.1758
     14 C          60.3891   87.7017   10.0914 C.ar    1  UNL1        0.1786
     15 N          60.8095   86.3253    9.6686 N.ar    1  UNL1       -0.2214
     16 C          60.4170   86.1413    8.2326 C.ar    1  UNL1        0.1079
     17 C          59.7541   87.4041    7.7679 C.ar    1  UNL1        0.0588
     18 S          59.7368   88.3685    8.9168 S.2     1  UNL1       -0.0497
     19 N          66.3806   92.8983   12.7082 N.pl3   1  UNL1       -0.3319
     20 H          67.2664   92.5260   12.9227 H       1  UNL1        0.1468
     21 C          66.1899   94.3842   12.6330 C.3     1  UNL1        0.0888
     22 O          67.2634   96.4386    7.8300 O.2     1  UNL1       -0.1730
     23 S          67.0718   95.5864    9.0494 S.O2    1  UNL1       -0.0100
     24 O          67.6238   94.4952    8.1807 O.2     1  UNL1       -0.1730
     25 C          66.5598   96.8558    9.6631 C.3     1  UNL1        0.1509
     26 C          66.1671   96.5599   11.0803 C.3     1  UNL1        0.0288
     27 C          66.4364   95.1077   11.3423 C.3     1  UNL1        0.0449
     28 C          66.9955   94.5061   10.0872 C.3     1  UNL1        0.1525
@<TRIPOS>BOND
     1    22    23    2
     2    23    24    2
     3    23    25    1
     4    25    26    1
     5    26    27    1
     6    27    21    1
     7    21    19    1
     8    19     1    1
     9     1     2   ar
    10     2     3   ar
    11     3     4    1
    12     3     5   ar
    13     5     9    1
    14     9    10    2
    15     9    11    2
    16     9    12    1
    17    12    14    1
    18    14    15   ar
    19    15    16   ar
    20    16    17   ar
    21    17    18   ar
    22     5     6   ar
    23     6     7   ar
    24     7     8    1
    25    27    28    1
    26    28    23    1
    27     7     1   ar
    28    18    14   ar
    29    19    20    1
    30    12    13    1
@<TRIPOS>MOLECULE
*****
 28 30 0 0 0
SMALL
GASTEIGER

@<TRIPOS>ATOM
      1 C          61.9998   88.4700   11.4802 C.ar    1  UNL1        0.0577
      2 C          63.0146   88.5439   12.5823 C.ar    1  UNL1        0.0462
      3 C          63.8864   89.7568   12.7189 C.ar    1  UNL1        0.1602
      4 F          64.9012   89.8308   13.8211 F       1  UNL1       -0.2027
      5 C          63.7436   90.8957   11.7532 C.ar    1  UNL1        0.1534
      6 C          62.7289   90.8218   10.6511 C.ar    1  UNL1        0.0351
      7 C          61.8570   89.6089   10.5145 C.ar    1  UNL1        0.0722
      8 CL         60.8422   89.5349    9.4123 Cl      1  UNL1       -0.0809
      9 S          64.6156   92.1087   11.8898 S.O2    1  UNL1        0.0772
     10 O          64.4142   92.0860   13.3761 O.2     1  UNL1       -0.1498
     11 O          64.8169   92.1313   10.4036 O.2     1  UNL1       -0.1498
     12 N          65.4875   93.3215   12.0265 N.pl3   1  UNL1       -0.1936
     13 H          65.4023   93.9025   12.8167 H       1  UNL1        0.1758
     14 C          66.4892   93.6492   10.9591 C.ar    1  UNL1        0.1786
     15 N          67.6347   92.7818   10.5287 N.ar    1  UNL1       -0.2214
     16 C          68.3747   93.4984    9.4383 C.ar    1  UNL1        0.1079
     17 C          67.6864   94.8088    9.1948 C.ar    1  UNL1        0.0588
     18 S          66.5210   94.9020   10.1347 S.2     1  UNL1       -0.0497
     19 N          61.1279   87.2570   11.3436 N.pl3   1  UNL1       -0.3319
     20 H          60.2580   87.2218   11.8033 H       1  UNL1        0.1468
     21 C          61.5813   86.0978   10.5065 C.3     1  UNL1        0.0888
     22 O          64.9317   82.2445   12.0457 O.2     1  UNL1       -0.1730
     23 S          64.0792   83.2391   11.3149 S.O2    1  UNL1       -0.0100
     24 O          64.6768   82.6142   10.0892 O.2     1  UNL1       -0.1730
     25 C          63.6599   83.6560   12.6935 C.3     1  UNL1        0.1509
     26 C          62.6731   84.7777   12.5584 C.3     1  UNL1        0.0288
     27 C          62.4826   85.0539   11.0964 C.3     1  UNL1        0.0449
     28 C          63.3516   84.1030   10.3279 C.3     1  UNL1        0.1525
@<TRIPOS>BOND
     1    22    23    2
     2    23    24    2
     3    23    25    1
     4    25    26    1
     5    26    27    1
     6    27    21    1
     7    21    19    1
     8    19     1    1
     9     1     2   ar
    10     2     3   ar
    11     3     4    1
    12     3     5   ar
    13     5     9    1
    14     9    10    2
    15     9    11    2
    16     9    12    1
    17    12    14    1
    18    14    15   ar
    19    15    16   ar
    20    16    17   ar
    21    17    18   ar
    22     5     6   ar
    23     6     7   ar
    24     7     8    1
    25    27    28    1
    26    28    23    1
    27     7     1   ar
    28    18    14   ar
    29    19    20    1
    30    12    13    1
@<TRIPOS>MOLECULE
*****
 28 30 0 0 0
SMALL
GASTEIGER

@<TRIPOS>ATOM
      1 C          63.0140   89.5485   12.1663 C.ar    1  UNL1        0.0577
      2 C          62.9723   90.4933   11.0021 C.ar    1  UNL1        0.0462
      3 C          63.9290   91.6468   10.9376 C.ar    1  UNL1        0.1602
      4 F          63.8873   92.5916    9.7733 F       1  UNL1       -0.2027
      5 C          64.9274   91.8554   12.0374 C.ar    1  UNL1        0.1534
      6 C          64.9692   90.9106   13.2017 C.ar    1  UNL1        0.0351
      7 C          64.0125   89.7571   13.2661 C.ar    1  UNL1        0.0722
      8 CL         64.0542   88.8123   14.4304 Cl      1  UNL1       -0.0809
      9 S          65.8842   93.0089   11.9729 S.O2    1  UNL1        0.0772
     10 O          66.3392   92.5557   10.6174 O.2     1  UNL1       -0.1498
     11 O          65.4292   93.4622   13.3284 O.2     1  UNL1       -0.1498
     12 N          66.8409   94.1624   11.9083 N.pl3   1  UNL1       -0.1936
     13 H          67.4876   94.3068   12.6364 H       1  UNL1        0.1758
     14 C          66.8122   95.0958   10.7344 C.ar    1  UNL1        0.1786
     15 N          67.7982   95.1218    9.6043 N.ar    1  UNL1       -0.2214
     16 C          67.3879   96.2091    8.6561 C.ar    1  UNL1        0.1079
     17 C          66.1483   96.8553    9.2001 C.ar    1  UNL1        0.0588
     18 S          65.7925   96.1672   10.4847 S.2     1  UNL1       -0.0497
     19 N          62.0573   88.3950   12.2308 N.pl3   1  UNL1       -0.3319
     20 H          62.2262   87.6494   12.8511 H       1  UNL1        0.1468
     21 C          60.8431   88.3775   11.3502 C.3     1  UNL1        0.0888
     22 O          60.1687   85.4396    6.9506 O.2     1  UNL1       -0.1730
     23 S          60.0541   86.3595    8.1298 S.O2    1  UNL1       -0.0100
     24 O          58.6677   86.5983    7.6094 O.2     1  UNL1       -0.1730
     25 C          61.4645   85.9284    8.4037 C.3     1  UNL1        0.1509
     26 C          61.9317   86.6319    9.6435 C.3     1  UNL1        0.0288
     27 C          60.8101   87.4977   10.1357 C.3     1  UNL1        0.0449
     28 C          59.6497   87.3294    9.2002 C.3     1  UNL1        0.1525
@<TRIPOS>BOND
     1    22    23    2
     2    23    24    2
     3    23    25    1
     4    25    26    1
     5    26    27    1
     6    27    21    1
     7    21    19    1
     8    19     1    1
     9     1     2   ar
    10     2     3   ar
    11     3     4    1
    12     3     5   ar
    13     5     9    1
    14     9    10    2
    15     9    11    2
    16     9    12    1
    17    12    14    1
    18    14    15   ar
    19    15    16   ar
    20    16    17   ar
    21    17    18   ar
    22     5     6   ar
    23     6     7   ar
    24     7     8    1
    25    27    28    1
    26    28    23    1
    27     7     1   ar
    28    18    14   ar
    29    19    20    1
    30    12    13    1
@<TRIPOS>MOLECULE
*****
 28 30 0 0 0
SMALL
GASTEIGER

@<TRIPOS>ATOM
      1 C          64.7016   91.5894   12.8015 C.ar    1  UNL1        0.0577
      2 C          64.1732   91.7160   11.4033 C.ar    1  UNL1        0.0462
      3 C          63.1024   90.7840   10.9190 C.ar    1  UNL1        0.1602
      4 F          62.5740   90.9106    9.5208 F       1  UNL1       -0.2027
      5 C          62.5599   89.7254   11.8328 C.ar    1  UNL1        0.1534
      6 C          63.0882   89.5988   13.2309 C.ar    1  UNL1        0.0351
      7 C          64.1591   90.5308   13.7153 C.ar    1  UNL1        0.0722
      8 CL         64.6875   90.4043   15.1135 Cl      1  UNL1       -0.0809
      9 S          61.4890   88.7933   11.3484 S.O2    1  UNL1        0.0772
     10 O          60.4888   89.4872   12.2249 O.2     1  UNL1       -0.1498
     11 O          62.4892   88.0995   10.4720 O.2     1  UNL1       -0.1498
     12 N          60.4181   87.8614   10.8641 N.pl3   1  UNL1       -0.1936
     13 H          60.0016   87.2236   11.4878 H       1  UNL1        0.1758
     14 C          59.9819   87.9010    9.4294 C.ar    1  UNL1        0.1786
     15 N          59.8030   89.1353    8.5961 N.ar    1  UNL1       -0.2214
     16 C          59.3586   88.7104    7.2279 C.ar    1  UNL1        0.1079
     17 C          59.2628   87.2135    7.2156 C.ar    1  UNL1        0.0588
     18 S          59.6481   86.7132    8.5763 S.2     1  UNL1       -0.0497
     19 N          65.7725   92.5215   13.2858 N.pl3   1  UNL1       -0.3319
     20 H          65.5838   93.1483   14.0212 H       1  UNL1        0.1468
     21 C          67.1307   92.4986   12.6498 C.3     1  UNL1        0.0888
     22 O          67.4545   94.8181    7.8584 O.2     1  UNL1       -0.1730
     23 S          67.1849   94.4252    9.2807 S.O2    1  UNL1       -0.0100
     24 O          66.4148   95.7116    9.3247 O.2     1  UNL1       -0.1730
     25 C          68.0115   93.2209    8.9392 C.3     1  UNL1        0.1509
     26 C          68.0918   92.3526   10.1598 C.3     1  UNL1        0.0288
     27 C          67.3148   93.0203   11.2555 C.3     1  UNL1        0.0449
     28 C          66.7544   94.3012   10.7122 C.3     1  UNL1        0.1525
@<TRIPOS>BOND
     1    22    23    2
     2    23    24    2
     3    23    25    1
     4    25    26    1
     5    26    27    1
     6    27    21    1
     7    21    19    1
     8    19     1    1
     9     1     2   ar
    10     2     3   ar
    11     3     4    1
    12     3     5   ar
    13     5     9    1
    14     9    10    2
    15     9    11    2
    16     9    12    1
    17    12    14    1
    18    14    15   ar
    19    15    16   ar
    20    16    17   ar
    21    17    18   ar
    22     5     6   ar
    23     6     7   ar
    24     7     8    1
    25    27    28    1
    26    28    23    1
    27     7     1   ar
    28    18    14   ar
    29    19    20    1
    30    12    13    1
@<TRIPOS>MOLECULE
*****
 28 30 0 0 0
SMALL
GASTEIGER

@<TRIPOS>ATOM
      1 C          62.7595   88.3152   11.4581 C.ar    1  UNL1        0.0577
      2 C          63.5245   88.3407   12.7480 C.ar    1  UNL1        0.0462
      3 C          63.7490   87.0696   13.5121 C.ar    1  UNL1        0.1602
      4 F          64.5141   87.0951   14.8021 F       1  UNL1       -0.2027
      5 C          63.2085   85.7730   12.9862 C.ar    1  UNL1        0.1534
      6 C          62.4435   85.7474   11.6962 C.ar    1  UNL1        0.0351
      7 C          62.2190   87.0185   10.9322 C.ar    1  UNL1        0.0722
      8 CL         61.4539   86.9931    9.6421 Cl      1  UNL1       -0.0809
      9 S          63.4331   84.5018   13.7503 S.O2    1  UNL1        0.0772
     10 O          64.4823   84.0919   12.7599 O.2     1  UNL1       -0.1498
     11 O          62.3838   84.9117   14.7407 O.2     1  UNL1       -0.1498
     12 N          63.6576   83.2307   14.5143 N.pl3   1  UNL1       -0.1936
     13 H          64.3177   83.2052   15.2444 H       1  UNL1        0.1758
     14 C          62.8765   81.9983   14.1661 C.ar    1  UNL1        0.1786
     15 N          61.4236   81.7641   14.4559 N.ar    1  UNL1       -0.2214
     16 C          61.0604   80.4049   13.9359 C.ar    1  UNL1        0.1079
     17 C          62.2889   79.7989   13.3247 C.ar    1  UNL1        0.0588
     18 S          63.4114   80.7838   13.4670 S.2     1  UNL1       -0.0497
     19 N          62.5349   89.5863   10.6939 N.pl3   1  UNL1       -0.3319
     20 H          62.3541   89.5539    9.7267 H       1  UNL1        0.1468
     21 C          62.5859   90.9069   11.4035 C.3     1  UNL1        0.0888
     22 O          67.2692   93.4444   11.6696 O.2     1  UNL1       -0.1730
     23 S          65.9632   92.8160   11.2827 S.O2    1  UNL1       -0.0100
     24 O          66.2929   93.3451    9.9184 O.2     1  UNL1       -0.1730
     25 C          65.9066   92.4183   12.7280 C.3     1  UNL1        0.1509
     26 C          64.6345   91.6547   12.9491 C.3     1  UNL1        0.0288
     27 C          63.9050   91.5806   11.6405 C.3     1  UNL1        0.0449
     28 C          64.7262   92.2983   10.6107 C.3     1  UNL1        0.1525
@<TRIPOS>BOND
     1    22    23    2
     2    23    24    2
     3    23    25    1
     4    25    26    1
     5    26    27    1
     6    27    21    1
     7    21    19    1
     8    19     1    1
     9     1     2   ar
    10     2     3   ar
    11     3     4    1
    12     3     5   ar
    13     5     9    1
    14     9    10    2
    15     9    11    2
    16     9    12    1
    17    12    14    1
    18    14    15   ar
    19    15    16   ar
    20    16    17   ar
    21    17    18   ar
    22     5     6   ar
    23     6     7   ar
    24     7     8    1
    25    27    28    1
    26    28    23    1
    27     7     1   ar
    28    18    14   ar
    29    19    20    1
    30    12    13    1
@<TRIPOS>MOLECULE
*****
 28 30 0 0 0
SMALL
GASTEIGER

@<TRIPOS>ATOM
      1 C          62.7996   89.3485   11.8871 C.ar    1  UNL1        0.0577
      2 C          63.7762   89.5423   13.0089 C.ar    1  UNL1        0.0462
      3 C          64.7293   90.7003   12.9819 C.ar    1  UNL1        0.1602
      4 F          65.7060   90.8942   14.1038 F       1  UNL1       -0.2027
      5 C          64.7058   91.6644   11.8330 C.ar    1  UNL1        0.1534
      6 C          63.7292   91.4705   10.7111 C.ar    1  UNL1        0.0351
      7 C          62.7761   90.3126   10.7382 C.ar    1  UNL1        0.0722
      8 CL         61.7994   90.1187    9.6163 Cl      1  UNL1       -0.0809
      9 S          65.6589   92.8224   11.8060 S.O2    1  UNL1        0.0772
     10 O          66.0371   92.4781   10.3959 O.2     1  UNL1       -0.1498
     11 O          65.2806   93.1667   13.2161 O.2     1  UNL1       -0.1498
     12 N          66.6120   93.9803   11.7790 N.pl3   1  UNL1       -0.1936
     13 H          67.2979   94.0697   12.4795 H       1  UNL1        0.1758
     14 C          66.5200   95.0021   10.6846 C.ar    1  UNL1        0.1786
     15 N          65.4114   95.9948   10.4961 N.ar    1  UNL1       -0.2214
     16 C          65.7267   96.8167    9.2816 C.ar    1  UNL1        0.1079
     17 C          67.0302   96.3320    8.7194 C.ar    1  UNL1        0.0588
     18 S          67.5205   95.2104    9.5866 S.2     1  UNL1       -0.0497
     19 N          61.8465   88.1905   11.9141 N.pl3   1  UNL1       -0.3319
     20 H          61.0161   88.2486   12.4396 H       1  UNL1        0.1468
     21 C          62.1587   86.9440   11.1403 C.3     1  UNL1        0.0888
     22 O          64.1396   82.9748   14.1007 O.2     1  UNL1       -0.1730
     23 S          63.6956   84.2786   13.5065 S.O2    1  UNL1       -0.0100
     24 O          64.3143   84.8703   14.7382 O.2     1  UNL1       -0.1730
     25 C          63.1697   83.4142   12.3990 C.3     1  UNL1        0.1509
     26 C          62.5299   84.3076   11.3778 C.3     1  UNL1        0.0288
     27 C          62.6605   85.7239   11.8542 C.3     1  UNL1        0.0449
     28 C          63.3809   85.7060   13.1698 C.3     1  UNL1        0.1525
@<TRIPOS>BOND
     1    22    23    2
     2    23    24    2
     3    23    25    1
     4    25    26    1
     5    26    27    1
     6    27    21    1
     7    21    19    1
     8    19     1    1
     9     1     2   ar
    10     2     3   ar
    11     3     4    1
    12     3     5   ar
    13     5     9    1
    14     9    10    2
    15     9    11    2
    16     9    12    1
    17    12    14    1
    18    14    15   ar
    19    15    16   ar
    20    16    17   ar
    21    17    18   ar
    22     5     6   ar
    23     6     7   ar
    24     7     8    1
    25    27    28    1
    26    28    23    1
    27     7     1   ar
    28    18    14   ar
    29    19    20    1
    30    12    13    1
