@<TRIPOS>MOLECULE
*****
 37 41 0 0 0
SMALL
GASTEIGER

@<TRIPOS>ATOM
      1 O          62.3575   85.2287   13.9942 O.2     1  UNL1       -0.2744
      2 C          63.0419   84.6290   15.1866 C.2     1  UNL1        0.2320
      3 N          63.6838   85.5191   16.2092 N.am    1  UNL1       -0.2639
      4 H          64.1331   85.1255   16.9918 H       1  UNL1        0.1567
      5 C          63.6413   87.0088   16.0393 C.ar    1  UNL1        0.1655
      6 N          64.2364   87.7838   14.9012 N.ar    1  UNL1       -0.2239
      7 C          63.9591   89.2390   15.1362 C.ar    1  UNL1        0.0913
      8 C          63.1927   89.3635   16.4196 C.ar    1  UNL1        0.0573
      9 S          62.9963   87.9852   16.9778 S.2     1  UNL1       -0.0508
     10 C          64.3752   90.3711   14.2444 C.ar    1  UNL1        0.0403
     11 C          65.3025   91.4904   14.6150 C.ar    1  UNL1        0.1021
     12 N          65.4374   92.3937   13.4251 N.ar    1  UNL1       -0.2269
     13 C          64.5935   91.8327   12.3191 C.ar    1  UNL1        0.1406
     14 N          64.3380   92.2985   10.9164 N.ar    1  UNL1       -0.3374
     15 C          63.4261   91.5144   10.0201 C.ar    1  UNL1        0.0735
     16 C          62.7696   90.2643   10.5265 C.ar    1  UNL1        0.0186
     17 C          63.0251   89.7985   11.9292 C.ar    1  UNL1        0.0046
     18 C          63.9370   90.5826   12.8255 C.ar    1  UNL1        0.0370
     19 H          64.7689   93.1190   10.5840 H       1  UNL1        0.1674
     20 C          63.0844   83.1393   15.3565 C.3     1  UNL1        0.1118
     21 C          63.0089   82.2449   14.1547 C.ar    1  UNL1       -0.0101
     22 C          62.1830   80.9936   14.2018 C.ar    1  UNL1       -0.0036
     23 C          62.1075   80.0991   12.9999 C.ar    1  UNL1        0.0028
     24 C          62.8578   80.4560   11.7511 C.ar    1  UNL1        0.0369
     25 C          63.6837   81.7073   11.7040 C.ar    1  UNL1        0.1382
     26 C          63.7593   82.6017   12.9058 C.ar    1  UNL1        0.0331
     27 O          64.4340   82.0642   10.4552 O.3     1  UNL1       -0.4754
     28 C          64.4335   83.4796    9.9585 C.3     1  UNL1        0.2068
     29 C          63.1533   84.2604    9.9198 C.3     1  UNL1        0.0646
     30 C          62.8988   85.2286    8.8028 C.3     1  UNL1        0.0760
     31 N          61.6226   86.0162    8.7691 N.3     1  UNL1       -0.2702
     32 C          60.6643   85.8431    7.6283 C.3     1  UNL1        0.0894
     33 C          59.3881   86.6307    7.5946 C.3     1  UNL1        0.0862
     34 N          59.0703   87.5914    8.7018 N.3     1  UNL1       -0.2951
     35 C          60.0287   87.7645    9.8428 C.3     1  UNL1        0.0862
     36 C          61.3048   86.9769    9.8764 C.3     1  UNL1        0.0894
     37 H          58.1827   87.2921    9.1056 H       1  UNL1        0.1233
@<TRIPOS>BOND
     1     1     2    2
     2     2    20    1
     3    20    21    1
     4    21    22   ar
     5    22    23   ar
     6    23    24   ar
     7    24    25   ar
     8    25    27    1
     9    27    28    1
    10    28    29    1
    11    29    30    1
    12    30    31    1
    13    31    32    1
    14    32    33    1
    15    33    34    1
    16    34    35    1
    17    35    36    1
    18    25    26   ar
    19     2     3   am
    20     3     5    1
    21     5     6   ar
    22     6     7   ar
    23     7    10    1
    24    10    11   ar
    25    11    12   ar
    26    12    13   ar
    27    13    14   ar
    28    14    15   ar
    29    15    16   ar
    30    16    17   ar
    31    17    18   ar
    32     7     8   ar
    33     8     9   ar
    34    26    21   ar
    35     9     5   ar
    36    36    31    1
    37    18    10   ar
    38    18    13    1
    39    34    37    1
    40     3     4    1
    41    14    19    1
@<TRIPOS>MOLECULE
*****
 37 41 0 0 0
SMALL
GASTEIGER

@<TRIPOS>ATOM
      1 O          65.6642   86.0621   14.9556 O.2     1  UNL1       -0.2744
      2 C          64.2542   85.7124   15.3291 C.2     1  UNL1        0.2320
      3 N          63.2656   86.8003   15.6275 N.am    1  UNL1       -0.2639
      4 H          62.3402   86.5707   15.8727 H       1  UNL1        0.1567
      5 C          63.6869   88.2378   15.5525 C.ar    1  UNL1        0.1655
      6 N          64.7917   88.7896   14.7010 N.ar    1  UNL1       -0.2239
      7 C          64.8651   90.2688   14.9379 C.ar    1  UNL1        0.0913
      8 C          63.8057   90.6315   15.9360 C.ar    1  UNL1        0.0573
      9 S          63.0775   89.3763   16.3158 S.2     1  UNL1       -0.0508
     10 C          65.8287   91.2188   14.2906 C.ar    1  UNL1        0.0403
     11 C          67.1198   91.7035   14.8807 C.ar    1  UNL1        0.1021
     12 N          67.7594   92.6351   13.8943 N.ar    1  UNL1       -0.2269
     13 C          66.8636   92.7261   12.6945 C.ar    1  UNL1        0.1406
     14 N          66.9803   93.4930   11.4107 N.ar    1  UNL1       -0.3374
     15 C          65.9038   93.3845   10.3718 C.ar    1  UNL1        0.0735
     16 C          64.7106   92.5092   10.6168 C.ar    1  UNL1        0.0186
     17 C          64.5939   91.7423   11.9006 C.ar    1  UNL1        0.0046
     18 C          65.6704   91.8508   12.9395 C.ar    1  UNL1        0.0370
     19 H          67.7635   94.0675   11.2499 H       1  UNL1        0.1674
     20 C          63.8328   84.2747   15.4042 C.3     1  UNL1        0.1118
     21 C          63.4618   83.5356   14.1528 C.ar    1  UNL1       -0.0101
     22 C          62.5807   82.3241   14.2307 C.ar    1  UNL1       -0.0036
     23 C          62.2096   81.5849   12.9792 C.ar    1  UNL1        0.0028
     24 C          62.7196   82.0572   11.6500 C.ar    1  UNL1        0.0369
     25 C          63.6007   83.2687   11.5722 C.ar    1  UNL1        0.1382
     26 C          63.9718   84.0079   12.8235 C.ar    1  UNL1        0.0331
     27 O          64.1107   83.7410   10.2430 O.3     1  UNL1       -0.4754
     28 C          63.2437   84.5971    9.3681 C.3     1  UNL1        0.2068
     29 C          62.2966   85.5830    9.9854 C.3     1  UNL1        0.0646
     30 C          62.0036   86.8787    9.2889 C.3     1  UNL1        0.0760
     31 N          61.6497   88.0970   10.0892 N.3     1  UNL1       -0.2702
     32 C          60.5510   89.0064    9.6246 C.3     1  UNL1        0.0894
     33 C          60.1970   90.2248   10.4248 C.3     1  UNL1        0.0862
     34 N          60.9416   90.5336   11.6898 N.3     1  UNL1       -0.2951
     35 C          62.0403   89.6241   12.1545 C.3     1  UNL1        0.0862
     36 C          62.3943   88.4058   11.3542 C.3     1  UNL1        0.0894
     37 H          60.2496   90.5658   12.4385 H       1  UNL1        0.1233
@<TRIPOS>BOND
     1     1     2    2
     2     2    20    1
     3    20    21    1
     4    21    22   ar
     5    22    23   ar
     6    23    24   ar
     7    24    25   ar
     8    25    27    1
     9    27    28    1
    10    28    29    1
    11    29    30    1
    12    30    31    1
    13    31    32    1
    14    32    33    1
    15    33    34    1
    16    34    35    1
    17    35    36    1
    18    25    26   ar
    19     2     3   am
    20     3     5    1
    21     5     6   ar
    22     6     7   ar
    23     7    10    1
    24    10    11   ar
    25    11    12   ar
    26    12    13   ar
    27    13    14   ar
    28    14    15   ar
    29    15    16   ar
    30    16    17   ar
    31    17    18   ar
    32     7     8   ar
    33     8     9   ar
    34    26    21   ar
    35     9     5   ar
    36    36    31    1
    37    18    10   ar
    38    18    13    1
    39    34    37    1
    40     3     4    1
    41    14    19    1
@<TRIPOS>MOLECULE
*****
 37 41 0 0 0
SMALL
GASTEIGER

@<TRIPOS>ATOM
      1 O          62.2852   85.2222   13.9209 O.2     1  UNL1       -0.2744
      2 C          63.0288   84.6505   15.0915 C.2     1  UNL1        0.2320
      3 N          63.7221   85.5641   16.0582 N.am    1  UNL1       -0.2639
      4 H          64.2102   85.1889   16.8265 H       1  UNL1        0.1567
      5 C          63.6718   87.0492   15.8545 C.ar    1  UNL1        0.1655
      6 N          64.2115   87.7956   14.6706 N.ar    1  UNL1       -0.2239
      7 C          63.9463   89.2565   14.8832 C.ar    1  UNL1        0.0913
      8 C          63.2426   89.4132   16.1986 C.ar    1  UNL1        0.0573
      9 S          63.0730   88.0490   16.7989 S.2     1  UNL1       -0.0508
     10 C          64.3192   90.3661   13.9452 C.ar    1  UNL1        0.0403
     11 C          63.8131   90.5439   12.5444 C.ar    1  UNL1        0.1021
     12 N          64.4448   91.7803   11.9768 N.ar    1  UNL1       -0.2269
     13 C          65.3414   92.3666   13.0268 C.ar    1  UNL1        0.1406
     14 N          66.2185   93.5834   13.0323 N.ar    1  UNL1       -0.3374
     15 C          67.0179   93.9261   14.2543 C.ar    1  UNL1        0.0735
     16 C          66.9403   93.0520   15.4708 C.ar    1  UNL1        0.0186
     17 C          66.0632   91.8352   15.4653 C.ar    1  UNL1        0.0046
     18 C          65.2638   91.4925   14.2433 C.ar    1  UNL1        0.0370
     19 H          66.2694   94.1571   12.2338 H       1  UNL1        0.1674
     20 C          63.0791   83.1653   15.2952 C.3     1  UNL1        0.1118
     21 C          62.9718   82.2426   14.1175 C.ar    1  UNL1       -0.0101
     22 C          62.3038   80.9080   14.2688 C.ar    1  UNL1       -0.0036
     23 C          62.1964   79.9852   13.0910 C.ar    1  UNL1        0.0028
     24 C          62.7570   80.3971   11.7620 C.ar    1  UNL1        0.0369
     25 C          63.4249   81.7316   11.6108 C.ar    1  UNL1        0.1382
     26 C          63.5323   82.6543   12.7885 C.ar    1  UNL1        0.0331
     27 O          63.9855   82.1434   10.2818 O.3     1  UNL1       -0.4754
     28 C          64.2743   83.5891   10.0051 C.3     1  UNL1        0.2068
     29 C          63.2015   84.4741    9.4431 C.3     1  UNL1        0.0646
     30 C          62.3490   85.2964   10.3634 C.3     1  UNL1        0.0760
     31 N          61.6435   86.5141    9.8443 N.3     1  UNL1       -0.2702
     32 C          62.0488   87.8767   10.3228 C.3     1  UNL1        0.0894
     33 C          61.3434   89.0945    9.8037 C.3     1  UNL1        0.0862
     34 N          60.2327   88.9496    8.8061 N.3     1  UNL1       -0.2951
     35 C          59.8273   87.5869    8.3276 C.3     1  UNL1        0.0862
     36 C          60.5328   86.3692    8.8467 C.3     1  UNL1        0.0894
     37 H          60.5071   89.4820    7.9804 H       1  UNL1        0.1233
@<TRIPOS>BOND
     1     1     2    2
     2     2    20    1
     3    20    21    1
     4    21    22   ar
     5    22    23   ar
     6    23    24   ar
     7    24    25   ar
     8    25    27    1
     9    27    28    1
    10    28    29    1
    11    29    30    1
    12    30    31    1
    13    31    32    1
    14    32    33    1
    15    33    34    1
    16    34    35    1
    17    35    36    1
    18    25    26   ar
    19     2     3   am
    20     3     5    1
    21     5     6   ar
    22     6     7   ar
    23     7    10    1
    24    10    11   ar
    25    11    12   ar
    26    12    13   ar
    27    13    14   ar
    28    14    15   ar
    29    15    16   ar
    30    16    17   ar
    31    17    18   ar
    32     7     8   ar
    33     8     9   ar
    34    26    21   ar
    35     9     5   ar
    36    36    31    1
    37    18    10   ar
    38    18    13    1
    39    34    37    1
    40     3     4    1
    41    14    19    1
@<TRIPOS>MOLECULE
*****
 37 41 0 0 0
SMALL
GASTEIGER

@<TRIPOS>ATOM
      1 O          62.4667   89.5274   15.8946 O.2     1  UNL1       -0.2744
      2 C          63.8413   89.6281   15.3027 C.2     1  UNL1        0.2320
      3 N          64.5918   88.3829   14.9335 N.am    1  UNL1       -0.2639
      4 H          65.4940   88.4490   14.5450 H       1  UNL1        0.1567
      5 C          63.9679   87.0373   15.1562 C.ar    1  UNL1        0.1655
      6 N          63.8001   85.9615   14.1244 N.ar    1  UNL1       -0.2239
      7 C          63.1306   84.7904   14.7802 C.ar    1  UNL1        0.0913
      8 C          62.8846   85.1423   16.2175 C.ar    1  UNL1        0.0573
      9 S          63.4021   86.5309   16.4498 S.2     1  UNL1       -0.0508
     10 C          62.7704   83.4948   14.1156 C.ar    1  UNL1        0.0403
     11 C          61.8931   82.4228   14.6911 C.ar    1  UNL1        0.1021
     12 N          61.8047   81.3093   13.6899 N.ar    1  UNL1       -0.2269
     13 C          62.6274   81.6931   12.4958 C.ar    1  UNL1        0.1406
     14 N          62.9101   80.9871   11.2029 N.ar    1  UNL1       -0.3374
     15 C          63.7897   81.6319   10.1731 C.ar    1  UNL1        0.0735
     16 C          64.3865   82.9827   10.4362 C.ar    1  UNL1        0.0186
     17 C          64.1038   83.6886   11.7291 C.ar    1  UNL1        0.0046
     18 C          63.2242   83.0438   12.7589 C.ar    1  UNL1        0.0370
     19 H          62.5184   80.1005   11.0303 H       1  UNL1        0.1674
     20 C          64.4653   90.9738   15.0800 C.3     1  UNL1        0.1118
     21 C          64.7593   91.4427   13.6858 C.ar    1  UNL1       -0.0101
     22 C          66.0130   92.2165   13.4035 C.ar    1  UNL1       -0.0036
     23 C          66.3070   92.6855   12.0093 C.ar    1  UNL1        0.0028
     24 C          65.3473   92.3807   10.8975 C.ar    1  UNL1        0.0369
     25 C          64.0936   91.6070   11.1799 C.ar    1  UNL1        0.1382
     26 C          63.7996   91.1380   12.5739 C.ar    1  UNL1        0.0331
     27 O          63.1339   91.3023   10.0681 O.3     1  UNL1       -0.4754
     28 C          62.0798   90.2514   10.2541 C.3     1  UNL1        0.2068
     29 C          62.4747   88.8450   10.5951 C.3     1  UNL1        0.0646
     30 C          61.4236   87.7843   10.7364 C.3     1  UNL1        0.0760
     31 N          60.8922   87.0882    9.5186 N.3     1  UNL1       -0.2702
     32 C          59.5019   87.3779    9.0359 C.3     1  UNL1        0.0894
     33 C          58.9704   86.6818    7.8181 C.3     1  UNL1        0.0862
     34 N          59.8293   85.6959    7.0830 N.3     1  UNL1       -0.2951
     35 C          61.2197   85.4061    7.5658 C.3     1  UNL1        0.0862
     36 C          61.7511   86.1023    8.7836 C.3     1  UNL1        0.0894
     37 H          59.9151   86.0366    6.1255 H       1  UNL1        0.1233
@<TRIPOS>BOND
     1     1     2    2
     2     2    20    1
     3    20    21    1
     4    21    22   ar
     5    22    23   ar
     6    23    24   ar
     7    24    25   ar
     8    25    27    1
     9    27    28    1
    10    28    29    1
    11    29    30    1
    12    30    31    1
    13    31    32    1
    14    32    33    1
    15    33    34    1
    16    34    35    1
    17    35    36    1
    18    25    26   ar
    19     2     3   am
    20     3     5    1
    21     5     6   ar
    22     6     7   ar
    23     7    10    1
    24    10    11   ar
    25    11    12   ar
    26    12    13   ar
    27    13    14   ar
    28    14    15   ar
    29    15    16   ar
    30    16    17   ar
    31    17    18   ar
    32     7     8   ar
    33     8     9   ar
    34    26    21   ar
    35     9     5   ar
    36    36    31    1
    37    18    10   ar
    38    18    13    1
    39    34    37    1
    40     3     4    1
    41    14    19    1
@<TRIPOS>MOLECULE
*****
 37 41 0 0 0
SMALL
GASTEIGER

@<TRIPOS>ATOM
      1 O          62.4979   87.3864    9.0646 O.2     1  UNL1       -0.2744
      2 C          62.0625   87.0292   10.4549 C.2     1  UNL1        0.2320
      3 N          62.1793   88.0371   11.5596 N.am    1  UNL1       -0.2639
      4 H          61.8936   87.8026   12.4721 H       1  UNL1        0.1567
      5 C          62.7313   89.4022   11.2741 C.ar    1  UNL1        0.1655
      6 N          63.8201   90.0914   12.0421 N.ar    1  UNL1       -0.2239
      7 C          64.0532   91.4330   11.4132 C.ar    1  UNL1        0.0913
      8 C          63.1086   91.5731   10.2564 C.ar    1  UNL1        0.0573
      9 S          62.2916   90.3180   10.1705 S.2     1  UNL1       -0.0508
     10 C          65.0551   92.4551   11.8621 C.ar    1  UNL1        0.0403
     11 C          65.5928   93.5851   11.0351 C.ar    1  UNL1        0.1021
     12 N          66.5652   94.3550   11.8788 N.ar    1  UNL1       -0.2269
     13 C          66.6284   93.7008   13.2272 C.ar    1  UNL1        0.1406
     14 N          67.4152   94.0227   14.4630 N.ar    1  UNL1       -0.3374
     15 C          67.2687   93.1703   15.6885 C.ar    1  UNL1        0.0735
     16 C          66.3354   91.9961   15.6782 C.ar    1  UNL1        0.0186
     17 C          65.5486   91.6742   14.4424 C.ar    1  UNL1        0.0046
     18 C          65.6951   92.5266   13.2169 C.ar    1  UNL1        0.0370
     19 H          68.0277   94.7934   14.4698 H       1  UNL1        0.1674
     20 C          61.5105   85.6640   10.7404 C.3     1  UNL1        0.1118
     21 C          62.4423   84.5145   10.9860 C.ar    1  UNL1       -0.0101
     22 C          63.3315   84.0211    9.8832 C.ar    1  UNL1       -0.0036
     23 C          64.2633   82.8715   10.1288 C.ar    1  UNL1        0.0028
     24 C          64.3059   82.2154   11.4771 C.ar    1  UNL1        0.0369
     25 C          63.4168   82.7088   12.5797 C.ar    1  UNL1        0.1382
     26 C          62.4849   83.8583   12.3342 C.ar    1  UNL1        0.0331
     27 O          63.4594   82.0527   13.9279 O.3     1  UNL1       -0.4754
     28 C          63.5241   82.8926   15.1691 C.3     1  UNL1        0.2068
     29 C          64.6667   83.8428   15.3730 C.3     1  UNL1        0.0646
     30 C          64.6650   85.1763   14.6860 C.3     1  UNL1        0.0760
     31 N          64.0942   86.3770   15.3806 N.3     1  UNL1       -0.2702
     32 C          64.2653   87.7416   14.7819 C.3     1  UNL1        0.0894
     33 C          63.6946   88.9424   15.4765 C.3     1  UNL1        0.0862
     34 N          62.9526   88.7785   16.7698 N.3     1  UNL1       -0.2951
     35 C          62.7814   87.4138   17.3685 C.3     1  UNL1        0.0862
     36 C          63.3522   86.2131   16.6739 C.3     1  UNL1        0.0894
     37 H          62.0161   89.1547   16.6217 H       1  UNL1        0.1233
@<TRIPOS>BOND
     1     1     2    2
     2     2    20    1
     3    20    21    1
     4    21    22   ar
     5    22    23   ar
     6    23    24   ar
     7    24    25   ar
     8    25    27    1
     9    27    28    1
    10    28    29    1
    11    29    30    1
    12    30    31    1
    13    31    32    1
    14    32    33    1
    15    33    34    1
    16    34    35    1
    17    35    36    1
    18    25    26   ar
    19     2     3   am
    20     3     5    1
    21     5     6   ar
    22     6     7   ar
    23     7    10    1
    24    10    11   ar
    25    11    12   ar
    26    12    13   ar
    27    13    14   ar
    28    14    15   ar
    29    15    16   ar
    30    16    17   ar
    31    17    18   ar
    32     7     8   ar
    33     8     9   ar
    34    26    21   ar
    35     9     5   ar
    36    36    31    1
    37    18    10   ar
    38    18    13    1
    39    34    37    1
    40     3     4    1
    41    14    19    1
@<TRIPOS>MOLECULE
*****
 37 41 0 0 0
SMALL
GASTEIGER

@<TRIPOS>ATOM
      1 O          60.3294   89.0390   12.0713 O.2     1  UNL1       -0.2744
      2 C          61.0425   88.2964   10.9804 C.2     1  UNL1        0.2320
      3 N          62.4373   88.6897   10.5934 N.am    1  UNL1       -0.2639
      4 H          62.9054   88.2023    9.8774 H       1  UNL1        0.1567
      5 C          63.1190   89.8254   11.2971 C.ar    1  UNL1        0.1655
      6 N          63.5369   89.8465   12.7376 N.ar    1  UNL1       -0.2239
      7 C          64.1786   91.1736   13.0147 C.ar    1  UNL1        0.0913
      8 C          64.1573   91.9729   11.7456 C.ar    1  UNL1        0.0573
      9 S          63.5024   91.1396   10.6841 S.2     1  UNL1       -0.0508
     10 C          64.7427   91.6227   14.3301 C.ar    1  UNL1        0.0403
     11 C          63.9789   91.7702   15.6127 C.ar    1  UNL1        0.1021
     12 N          64.9338   92.2418   16.6690 N.ar    1  UNL1       -0.2269
     13 C          66.2876   92.3858   16.0393 C.ar    1  UNL1        0.1406
     14 N          67.6126   92.8159   16.5955 N.ar    1  UNL1       -0.3374
     15 C          68.8195   92.8633   15.7061 C.ar    1  UNL1        0.0735
     16 C          68.7014   92.4807   14.2605 C.ar    1  UNL1        0.0186
     17 C          67.3764   92.0506   13.7044 C.ar    1  UNL1        0.0046
     18 C          66.1695   92.0032   14.5938 C.ar    1  UNL1        0.0370
     19 H          67.6901   93.0670   17.5443 H       1  UNL1        0.1674
     20 C          60.3609   87.1607   10.2766 C.3     1  UNL1        0.1118
     21 C          61.1512   86.2464    9.3881 C.ar    1  UNL1       -0.0101
     22 C          60.8365   86.1672    7.9236 C.ar    1  UNL1       -0.0036
     23 C          61.6269   85.2528    7.0351 C.ar    1  UNL1        0.0028
     24 C          62.7319   84.4178    7.6111 C.ar    1  UNL1        0.0369
     25 C          63.0465   84.4970    9.0755 C.ar    1  UNL1        0.1382
     26 C          62.2562   85.4113    9.9641 C.ar    1  UNL1        0.0331
     27 O          64.1515   83.6620    9.6516 O.3     1  UNL1       -0.4754
     28 C          63.8255   82.4683   10.4994 C.3     1  UNL1        0.2068
     29 C          64.2232   82.4444   11.9456 C.3     1  UNL1        0.0646
     30 C          64.6935   83.7016   12.6150 C.3     1  UNL1        0.0760
     31 N          63.9795   84.2167   13.8295 N.3     1  UNL1       -0.2702
     32 C          62.6446   83.6493   14.2117 C.3     1  UNL1        0.0894
     33 C          61.9306   84.1644   15.4262 C.3     1  UNL1        0.0862
     34 N          62.5516   85.2468   16.2585 N.3     1  UNL1       -0.2951
     35 C          63.8866   85.8141   15.8764 C.3     1  UNL1        0.0862
     36 C          64.6005   85.2991   14.6619 C.3     1  UNL1        0.0894
     37 H          62.6499   84.8726   17.2023 H       1  UNL1        0.1233
@<TRIPOS>BOND
     1     1     2    2
     2     2    20    1
     3    20    21    1
     4    21    22   ar
     5    22    23   ar
     6    23    24   ar
     7    24    25   ar
     8    25    27    1
     9    27    28    1
    10    28    29    1
    11    29    30    1
    12    30    31    1
    13    31    32    1
    14    32    33    1
    15    33    34    1
    16    34    35    1
    17    35    36    1
    18    25    26   ar
    19     2     3   am
    20     3     5    1
    21     5     6   ar
    22     6     7   ar
    23     7    10    1
    24    10    11   ar
    25    11    12   ar
    26    12    13   ar
    27    13    14   ar
    28    14    15   ar
    29    15    16   ar
    30    16    17   ar
    31    17    18   ar
    32     7     8   ar
    33     8     9   ar
    34    26    21   ar
    35     9     5   ar
    36    36    31    1
    37    18    10   ar
    38    18    13    1
    39    34    37    1
    40     3     4    1
    41    14    19    1
@<TRIPOS>MOLECULE
*****
 37 41 0 0 0
SMALL
GASTEIGER

@<TRIPOS>ATOM
      1 O          65.8648   85.6858   14.8594 O.2     1  UNL1       -0.2744
      2 C          64.5600   85.1144   14.3893 C.2     1  UNL1        0.2320
      3 N          63.4783   86.0259   13.8904 N.am    1  UNL1       -0.2639
      4 H          62.6219   85.6509   13.5819 H       1  UNL1        0.1567
      5 C          63.7014   87.5089   13.8614 C.ar    1  UNL1        0.1655
      6 N          64.2071   88.3469   14.9981 N.ar    1  UNL1       -0.2239
      7 C          64.2762   89.7702   14.5299 C.ar    1  UNL1        0.0913
      8 C          63.8131   89.8120   13.1037 C.ar    1  UNL1        0.0573
      9 S          63.4579   88.4145   12.6906 S.2     1  UNL1       -0.0508
     10 C          64.7288   90.9455   15.3447 C.ar    1  UNL1        0.0403
     11 C          63.9548   91.6039   16.4480 C.ar    1  UNL1        0.1021
     12 N          64.7826   92.7340   16.9844 N.ar    1  UNL1       -0.2269
     13 C          66.0682   92.7740   16.2125 C.ar    1  UNL1        0.1406
     14 N          67.2647   93.6741   16.3016 N.ar    1  UNL1       -0.3374
     15 C          68.4281   93.4688   15.3772 C.ar    1  UNL1        0.0735
     16 C          68.3948   92.3634   14.3638 C.ar    1  UNL1        0.0186
     17 C          67.1983   91.4633   14.2748 C.ar    1  UNL1        0.0046
     18 C          66.0349   91.6686   15.1991 C.ar    1  UNL1        0.0370
     19 H          67.2866   94.3996   16.9667 H       1  UNL1        0.1674
     20 C          64.3369   83.6313   14.4183 C.3     1  UNL1        0.1118
     21 C          63.9442   82.9073   13.1647 C.ar    1  UNL1       -0.0101
     22 C          63.4757   81.4841   13.2361 C.ar    1  UNL1       -0.0036
     23 C          63.0830   80.7600   11.9824 C.ar    1  UNL1        0.0028
     24 C          63.1587   81.4592   10.6574 C.ar    1  UNL1        0.0369
     25 C          63.6272   82.8824   10.5861 C.ar    1  UNL1        0.1382
     26 C          64.0199   83.6065   11.8397 C.ar    1  UNL1        0.0331
     27 O          63.7029   83.5816    9.2612 O.3     1  UNL1       -0.4754
     28 C          62.5959   84.4985    8.8327 C.3     1  UNL1        0.2068
     29 C          62.7602   85.9840    8.9611 C.3     1  UNL1        0.0646
     30 C          61.6295   86.8982    8.5931 C.3     1  UNL1        0.0760
     31 N          61.1129   87.8915    9.5913 N.3     1  UNL1       -0.2702
     32 C          60.2637   87.4297   10.7383 C.3     1  UNL1        0.0894
     33 C          59.7470   88.4230   11.7367 C.3     1  UNL1        0.0862
     34 N          60.0797   89.8780   11.5880 N.3     1  UNL1       -0.2951
     35 C          60.9290   90.3399   10.4409 C.3     1  UNL1        0.0862
     36 C          61.4455   89.3466    9.4427 C.3     1  UNL1        0.0894
     37 H          60.5608   90.1589   12.4424 H       1  UNL1        0.1233
@<TRIPOS>BOND
     1     1     2    2
     2     2    20    1
     3    20    21    1
     4    21    22   ar
     5    22    23   ar
     6    23    24   ar
     7    24    25   ar
     8    25    27    1
     9    27    28    1
    10    28    29    1
    11    29    30    1
    12    30    31    1
    13    31    32    1
    14    32    33    1
    15    33    34    1
    16    34    35    1
    17    35    36    1
    18    25    26   ar
    19     2     3   am
    20     3     5    1
    21     5     6   ar
    22     6     7   ar
    23     7    10    1
    24    10    11   ar
    25    11    12   ar
    26    12    13   ar
    27    13    14   ar
    28    14    15   ar
    29    15    16   ar
    30    16    17   ar
    31    17    18   ar
    32     7     8   ar
    33     8     9   ar
    34    26    21   ar
    35     9     5   ar
    36    36    31    1
    37    18    10   ar
    38    18    13    1
    39    34    37    1
    40     3     4    1
    41    14    19    1
@<TRIPOS>MOLECULE
*****
 37 41 0 0 0
SMALL
GASTEIGER

@<TRIPOS>ATOM
      1 O          60.7318   89.9035    8.5626 O.2     1  UNL1       -0.2744
      2 C          59.7851   88.7972    8.2022 C.2     1  UNL1        0.2320
      3 N          59.0662   88.8243    6.8860 N.am    1  UNL1       -0.2639
      4 H          58.4448   88.0982    6.6494 H       1  UNL1        0.1567
      5 C          59.2940   89.9576    5.9302 C.ar    1  UNL1        0.1655
      6 N          60.5515   90.2181    5.1550 N.ar    1  UNL1       -0.2239
      7 C          60.3390   91.4509    4.3275 C.ar    1  UNL1        0.0913
      8 C          58.9501   91.9524    4.5911 C.ar    1  UNL1        0.0573
      9 S          58.3042   91.0295    5.5816 S.2     1  UNL1       -0.0508
     10 C          61.3396   92.0731    3.3992 C.ar    1  UNL1        0.0403
     11 C          62.8124   91.7901    3.3725 C.ar    1  UNL1        0.1021
     12 N          63.4261   92.6296    2.2915 N.ar    1  UNL1       -0.2269
     13 C          62.3326   93.4314    1.6501 C.ar    1  UNL1        0.1406
     14 N          62.3445   94.4302    0.5311 N.ar    1  UNL1       -0.3374
     15 C          61.0669   95.0851    0.0968 C.ar    1  UNL1        0.0735
     16 C          59.7773   94.7411    0.7814 C.ar    1  UNL1        0.0186
     17 C          59.7654   93.7423    1.9004 C.ar    1  UNL1        0.0046
     18 C          61.0430   93.0874    2.3347 C.ar    1  UNL1        0.0370
     19 H          63.1909   94.6559    0.0818 H       1  UNL1        0.1674
     20 C          59.5573   87.6638    9.1580 C.3     1  UNL1        0.1118
     21 C          60.6980   86.7719    9.5493 C.ar    1  UNL1       -0.0101
     22 C          61.5317   86.1126    8.4907 C.ar    1  UNL1       -0.0036
     23 C          62.6726   85.2206    8.8820 C.ar    1  UNL1        0.0028
     24 C          62.9796   84.9879   10.3317 C.ar    1  UNL1        0.0369
     25 C          62.1459   85.6471   11.3901 C.ar    1  UNL1        0.1382
     26 C          61.0051   86.5391   10.9990 C.ar    1  UNL1        0.0331
     27 O          62.4529   85.4144   12.8398 O.3     1  UNL1       -0.4754
     28 C          63.6664   84.6248   13.2321 C.3     1  UNL1        0.2068
     29 C          64.5170   85.0782   14.3814 C.3     1  UNL1        0.0646
     30 C          63.8859   85.7632   15.5571 C.3     1  UNL1        0.0760
     31 N          63.7742   87.2589   15.5825 N.3     1  UNL1       -0.2702
     32 C          63.1336   87.9434   16.7534 C.3     1  UNL1        0.0894
     33 C          63.0219   89.4390   16.7788 C.3     1  UNL1        0.0862
     34 N          63.5508   90.2502   15.6332 N.3     1  UNL1       -0.2951
     35 C          64.1914   89.5656   14.4623 C.3     1  UNL1        0.0862
     36 C          64.3031   88.0700   14.4369 C.3     1  UNL1        0.0894
     37 H          64.2480   90.8863   16.0200 H       1  UNL1        0.1233
@<TRIPOS>BOND
     1     1     2    2
     2     2    20    1
     3    20    21    1
     4    21    22   ar
     5    22    23   ar
     6    23    24   ar
     7    24    25   ar
     8    25    27    1
     9    27    28    1
    10    28    29    1
    11    29    30    1
    12    30    31    1
    13    31    32    1
    14    32    33    1
    15    33    34    1
    16    34    35    1
    17    35    36    1
    18    25    26   ar
    19     2     3   am
    20     3     5    1
    21     5     6   ar
    22     6     7   ar
    23     7    10    1
    24    10    11   ar
    25    11    12   ar
    26    12    13   ar
    27    13    14   ar
    28    14    15   ar
    29    15    16   ar
    30    16    17   ar
    31    17    18   ar
    32     7     8   ar
    33     8     9   ar
    34    26    21   ar
    35     9     5   ar
    36    36    31    1
    37    18    10   ar
    38    18    13    1
    39    34    37    1
    40     3     4    1
    41    14    19    1
@<TRIPOS>MOLECULE
*****
 37 41 0 0 0
SMALL
GASTEIGER

@<TRIPOS>ATOM
      1 O          60.5252   89.1061    8.8652 O.2     1  UNL1       -0.2744
      2 C          59.7529   88.3242    7.8442 C.2     1  UNL1        0.2320
      3 N          60.0333   86.8637    7.6487 N.am    1  UNL1       -0.2639
      4 H          59.5265   86.3505    6.9786 H       1  UNL1        0.1567
      5 C          61.0860   86.1851    8.4740 C.ar    1  UNL1        0.1655
      6 N          61.0769   86.0374    9.9667 N.ar    1  UNL1       -0.2239
      7 C          62.3178   85.2960   10.3669 C.ar    1  UNL1        0.0913
      8 C          63.0940   84.9853    9.1215 C.ar    1  UNL1        0.0573
      9 S          62.3327   85.5348    7.9517 S.2     1  UNL1       -0.0508
     10 C          62.7132   84.9295   11.7666 C.ar    1  UNL1        0.0403
     11 C          63.0417   85.8907   12.8703 C.ar    1  UNL1        0.1021
     12 N          63.3811   85.0927   14.0942 N.ar    1  UNL1       -0.2269
     13 C          63.2624   83.6382   13.7470 C.ar    1  UNL1        0.1406
     14 N          63.4768   82.3927   14.5548 N.ar    1  UNL1       -0.3374
     15 C          63.2785   81.0463   13.9241 C.ar    1  UNL1        0.0735
     16 C          62.8658   80.9455   12.4855 C.ar    1  UNL1        0.0186
     17 C          62.6513   82.1910   11.6777 C.ar    1  UNL1        0.0046
     18 C          62.8496   83.5374   12.3084 C.ar    1  UNL1        0.0370
     19 H          63.7477   82.4589   15.4990 H       1  UNL1        0.1674
     20 C          58.7002   89.0029    7.0189 C.3     1  UNL1        0.1118
     21 C          59.0893   90.0620    6.0305 C.ar    1  UNL1       -0.0101
     22 C          58.0448   90.9744    5.4590 C.ar    1  UNL1       -0.0036
     23 C          58.4338   92.0336    4.4705 C.ar    1  UNL1        0.0028
     24 C          59.8673   92.1802    4.0536 C.ar    1  UNL1        0.0369
     25 C          60.9117   91.2678    4.6252 C.ar    1  UNL1        0.1382
     26 C          60.5227   90.2087    5.6135 C.ar    1  UNL1        0.0331
     27 O          62.3451   91.4144    4.2083 O.3     1  UNL1       -0.4754
     28 C          62.6938   91.5482    2.7556 C.3     1  UNL1        0.2068
     29 C          63.3645   92.7938    2.2568 C.3     1  UNL1        0.0646
     30 C          63.0119   93.3467    0.9078 C.3     1  UNL1        0.0760
     31 N          61.5747   93.4434    0.4892 N.3     1  UNL1       -0.2702
     32 C          60.7399   94.6066    0.9366 C.3     1  UNL1        0.0894
     33 C          59.3027   94.7034    0.5181 C.3     1  UNL1        0.0862
     34 N          58.7003   93.6369   -0.3478 N.3     1  UNL1       -0.2951
     35 C          59.5352   92.4736   -0.7952 C.3     1  UNL1        0.0862
     36 C          60.9723   92.3769   -0.3767 C.3     1  UNL1        0.0894
     37 H          58.3627   94.0990   -1.1921 H       1  UNL1        0.1233
@<TRIPOS>BOND
     1     1     2    2
     2     2    20    1
     3    20    21    1
     4    21    22   ar
     5    22    23   ar
     6    23    24   ar
     7    24    25   ar
     8    25    27    1
     9    27    28    1
    10    28    29    1
    11    29    30    1
    12    30    31    1
    13    31    32    1
    14    32    33    1
    15    33    34    1
    16    34    35    1
    17    35    36    1
    18    25    26   ar
    19     2     3   am
    20     3     5    1
    21     5     6   ar
    22     6     7   ar
    23     7    10    1
    24    10    11   ar
    25    11    12   ar
    26    12    13   ar
    27    13    14   ar
    28    14    15   ar
    29    15    16   ar
    30    16    17   ar
    31    17    18   ar
    32     7     8   ar
    33     8     9   ar
    34    26    21   ar
    35     9     5   ar
    36    36    31    1
    37    18    10   ar
    38    18    13    1
    39    34    37    1
    40     3     4    1
    41    14    19    1
